REMARK  Name = 118734345.pdb
REMARK  7 active torsions:
REMARK  status: ('A' for Active; 'I' for Inactive)
REMARK    1  A    between atoms: N_6  and  C_16
REMARK    2  A    between atoms: N_7  and  C_25
REMARK    3  A    between atoms: N_8  and  C_29
REMARK    4  A    between atoms: N_9  and  C_32
REMARK    5  A    between atoms: N_12  and  C_28
REMARK    6  A    between atoms: C_18  and  C_23
REMARK    7  A    between atoms: C_25  and  C_28
REMARK                            x       y       z     vdW  Elec       q    Type
REMARK                         _______ _______ _______ _____ _____    ______ ____
ROOT
ATOM      1  N   LIG     1      -3.834  -1.022   0.606  0.00  0.00    +0.000 N 
ATOM      2  N   LIG     1      -5.925  -0.639  -0.063  0.00  0.00    +0.000 NA
ATOM      3  N   LIG     1      -2.952   1.240   0.531  0.00  0.00    +0.000 NA
ATOM      4  N   LIG     1      -2.498   3.503   0.331  0.00  0.00    +0.000 NA
ATOM      5  N   LIG     1      -4.652   2.831  -0.201  0.00  0.00    +0.000 NA
ATOM      6  N   LIG     1      -6.882   2.163  -0.756  0.00  0.00    +0.000 NA
ATOM      7  C   LIG     1      -3.919   0.323   0.383  0.00  0.00    +0.000 A 
ATOM      8  C   LIG     1      -5.063  -1.556   0.325  0.00  0.00    +0.000 A 
ATOM      9  C   LIG     1      -5.224   0.540  -0.031  0.00  0.00    +0.000 A 
ATOM     10  C   LIG     1      -3.414   2.470   0.215  0.00  0.00    +0.000 A 
ATOM     11  C   LIG     1      -5.580   1.851  -0.328  0.00  0.00    +0.000 A 
ENDROOT
BRANCH   1  16
ATOM     12  O   LIG     1      -1.406  -1.125   0.657  0.00  0.00    +0.000 OA
ATOM     13  O   LIG     1      -3.311  -4.116   1.233  0.00  0.00    +0.000 OA
ATOM     14  O   LIG     1      -0.686  -3.876   1.886  0.00  0.00    +0.000 OA
ATOM     15  C   LIG     1      -2.536  -3.193   0.495  0.00  0.00    +0.000 C 
ATOM     16  C   LIG     1      -2.618  -1.786   1.073  0.00  0.00    +0.000 C 
ATOM     17  C   LIG     1      -1.048  -3.479   0.565  0.00  0.00    +0.000 C 
ATOM     18  C   LIG     1      -0.441  -2.117   0.278  0.00  0.00    +0.000 C 
BRANCH  18  21
ATOM     19  O   LIG     1      -0.782  -1.057  -1.830  0.00  0.00    +0.000 OA
ATOM     20  N   LIG     1       0.791  -2.765  -1.667  0.00  0.00    +0.000 NA
ATOM     21  C   LIG     1      -0.175  -1.902  -1.178  0.00  0.00    +0.000 C 
BRANCH  20  22
ATOM     22  C   LIG     1       1.214  -2.777  -3.048  0.00  0.00    +0.000 C 
ATOM     23  C   LIG     1       2.204  -1.666  -3.334  0.00  0.00    +0.000 C 
ENDBRANCH  20  22
ENDBRANCH  18  21
ENDBRANCH   1  16
BRANCH   4  24
ATOM     24  C   LIG     1      -1.131   3.318   0.759  0.00  0.00    +0.000 C 
BRANCH  24  25
ATOM     25  C   LIG     1      -0.287   2.843  -0.417  0.00  0.00    +0.000 C 
BRANCH  25  26
ATOM     26  N   LIG     1       1.103   2.658  -0.003  0.00  0.00    +0.000 NA
ATOM     27  N   LIG     1       3.633   1.338   0.121  0.00  0.00    +0.000 N 
ATOM     28  C   LIG     1       1.253   1.411   0.756  0.00  0.00    +0.000 C 
ATOM     29  C   LIG     1       1.990   2.641  -1.172  0.00  0.00    +0.000 C 
ATOM     30  C   LIG     1       2.693   1.234   1.244  0.00  0.00    +0.000 C 
ATOM     31  C   LIG     1       3.455   2.504  -0.750  0.00  0.00    +0.000 C 
BRANCH  27  33
ATOM     32 CL   LIG     1       9.001  -1.049   0.765  0.00  0.00    +0.000 Cl
ATOM     33  C   LIG     1       4.904   0.773   0.274  0.00  0.00    +0.000 A 
ATOM     34  C   LIG     1       6.041   1.574   0.168  0.00  0.00    +0.000 A 
ATOM     35  C   LIG     1       5.034  -0.592   0.531  0.00  0.00    +0.000 A 
ATOM     36  C   LIG     1       7.308   1.011   0.320  0.00  0.00    +0.000 A 
ATOM     37  C   LIG     1       6.301  -1.155   0.683  0.00  0.00    +0.000 A 
ATOM     38  C   LIG     1       7.438  -0.354   0.577  0.00  0.00    +0.000 A 
ENDBRANCH  27  33
ENDBRANCH  25  26
ENDBRANCH  24  25
ENDBRANCH   4  24
TORSDOF 7
