REMARK  Name = 118734345.pdb
REMARK  10 active torsions:
REMARK  status: ('A' for Active; 'I' for Inactive)
REMARK    1  A    between atoms: O_3  and  C_15
REMARK    2  A    between atoms: O_4  and  C_17
REMARK    3  A    between atoms: N_6  and  C_16
REMARK    4  A    between atoms: N_7  and  C_25
REMARK    5  A    between atoms: N_8  and  C_29
REMARK    6  A    between atoms: N_9  and  C_32
REMARK    7  A    between atoms: N_12  and  C_28
REMARK    8  A    between atoms: C_18  and  C_23
REMARK    9  A    between atoms: C_25  and  C_28
REMARK   10  A    between atoms: C_32  and  C_35
REMARK                            x       y       z     vdW  Elec       q    Type
REMARK                         _______ _______ _______ _____ _____    ______ ____
ROOT
ATOM      1  N   LIG     1      -3.834  -1.022   0.606  0.00  0.00    +0.000 N 
ATOM      2  N   LIG     1      -5.925  -0.639  -0.063  0.00  0.00    +0.000 NA
ATOM      3  N   LIG     1      -2.952   1.240   0.531  0.00  0.00    +0.000 NA
ATOM      4  N   LIG     1      -2.498   3.503   0.331  0.00  0.00    +0.000 N 
ATOM      5  N   LIG     1      -4.652   2.831  -0.201  0.00  0.00    +0.000 NA
ATOM      6  N   LIG     1      -6.882   2.163  -0.756  0.00  0.00    +0.000 N 
ATOM      7  C   LIG     1      -3.919   0.323   0.383  0.00  0.00    +0.000 A 
ATOM      8  C   LIG     1      -5.063  -1.556   0.325  0.00  0.00    +0.000 A 
ATOM      9  C   LIG     1      -5.224   0.540  -0.031  0.00  0.00    +0.000 A 
ATOM     10  C   LIG     1      -3.414   2.470   0.215  0.00  0.00    +0.000 A 
ATOM     11  C   LIG     1      -5.580   1.851  -0.328  0.00  0.00    +0.000 A 
ATOM     12  H   LIG     1      -2.813   4.433   0.081  0.00  0.00    +0.000 HD
ATOM     13  H   LIG     1      -7.576   1.434  -0.852  0.00  0.00    +0.000 HD
ATOM     14  H   LIG     1      -7.116   3.124  -0.966  0.00  0.00    +0.000 HD
ENDROOT
BRANCH   1  17
ATOM     15  O   LIG     1      -1.406  -1.125   0.657  0.00  0.00    +0.000 OA
ATOM     16  C   LIG     1      -2.536  -3.193   0.495  0.00  0.00    +0.000 C 
ATOM     17  C   LIG     1      -2.618  -1.786   1.073  0.00  0.00    +0.000 C 
ATOM     18  C   LIG     1      -1.048  -3.479   0.565  0.00  0.00    +0.000 C 
ATOM     19  C   LIG     1      -0.441  -2.117   0.278  0.00  0.00    +0.000 C 
BRANCH  19  22
ATOM     20  O   LIG     1      -0.782  -1.057  -1.830  0.00  0.00    +0.000 OA
ATOM     21  N   LIG     1       0.791  -2.765  -1.667  0.00  0.00    +0.000 N 
ATOM     22  C   LIG     1      -0.175  -1.902  -1.178  0.00  0.00    +0.000 C 
ATOM     23  H   LIG     1       1.249  -3.411  -1.030  0.00  0.00    +0.000 HD
BRANCH  21  24
ATOM     24  C   LIG     1       1.214  -2.777  -3.048  0.00  0.00    +0.000 C 
ATOM     25  C   LIG     1       2.204  -1.666  -3.334  0.00  0.00    +0.000 C 
ENDBRANCH  21  24
ENDBRANCH  19  22
BRANCH  16  26
ATOM     26  O   LIG     1      -3.311  -4.116   1.233  0.00  0.00    +0.000 OA
ATOM     27  H   LIG     1      -3.125  -5.002   0.879  0.00  0.00    +0.000 HD
ENDBRANCH  16  26
BRANCH  18  28
ATOM     28  O   LIG     1      -0.686  -3.876   1.886  0.00  0.00    +0.000 OA
ATOM     29  H   LIG     1       0.277  -4.011   1.894  0.00  0.00    +0.000 HD
ENDBRANCH  18  28
ENDBRANCH   1  17
BRANCH   4  30
ATOM     30  C   LIG     1      -1.131   3.318   0.759  0.00  0.00    +0.000 C 
BRANCH  30  31
ATOM     31  C   LIG     1      -0.287   2.843  -0.417  0.00  0.00    +0.000 C 
BRANCH  31  32
ATOM     32  N   LIG     1       1.103   2.658  -0.003  0.00  0.00    +0.000 NA
ATOM     33  N   LIG     1       3.633   1.338   0.121  0.00  0.00    +0.000 N 
ATOM     34  C   LIG     1       1.253   1.411   0.756  0.00  0.00    +0.000 C 
ATOM     35  C   LIG     1       1.990   2.641  -1.172  0.00  0.00    +0.000 C 
ATOM     36  C   LIG     1       2.693   1.234   1.244  0.00  0.00    +0.000 C 
ATOM     37  C   LIG     1       3.455   2.504  -0.750  0.00  0.00    +0.000 C 
BRANCH  33  39
ATOM     38 CL   LIG     1       9.001  -1.049   0.765  0.00  0.00    +0.000 Cl
ATOM     39  C   LIG     1       4.904   0.773   0.274  0.00  0.00    +0.000 A 
ATOM     40  C   LIG     1       6.041   1.574   0.168  0.00  0.00    +0.000 A 
ATOM     41  C   LIG     1       5.034  -0.592   0.531  0.00  0.00    +0.000 A 
ATOM     42  C   LIG     1       7.308   1.011   0.320  0.00  0.00    +0.000 A 
ATOM     43  C   LIG     1       6.301  -1.155   0.683  0.00  0.00    +0.000 A 
ATOM     44  C   LIG     1       7.438  -0.354   0.577  0.00  0.00    +0.000 A 
ENDBRANCH  33  39
ENDBRANCH  31  32
ENDBRANCH  30  31
ENDBRANCH   4  30
TORSDOF 9
