REMARK  Name = 118734362.pdb
REMARK  10 active torsions:
REMARK  status: ('A' for Active; 'I' for Inactive)
REMARK    1  A    between atoms: O_4  and  C_16
REMARK    2  A    between atoms: O_5  and  C_18
REMARK    3  A    between atoms: N_7  and  C_17
REMARK    4  A    between atoms: N_8  and  C_26
REMARK    5  A    between atoms: N_9  and  C_30
REMARK    6  A    between atoms: N_10  and  C_33
REMARK    7  A    between atoms: N_13  and  C_29
REMARK    8  A    between atoms: C_19  and  C_24
REMARK    9  A    between atoms: C_26  and  C_29
REMARK   10  A    between atoms: C_33  and  C_36
REMARK                            x       y       z     vdW  Elec       q    Type
REMARK                         _______ _______ _______ _____ _____    ______ ____
ROOT
ATOM      1  N   LIG     1      -3.957  -1.101   0.601  0.00  0.00    +0.000 N 
ATOM      2  N   LIG     1      -6.067  -0.781  -0.042  0.00  0.00    +0.000 NA
ATOM      3  N   LIG     1      -3.156   1.192   0.559  0.00  0.00    +0.000 NA
ATOM      4  N   LIG     1      -2.784   3.472   0.396  0.00  0.00    +0.000 N 
ATOM      5  N   LIG     1      -4.918   2.734  -0.128  0.00  0.00    +0.000 NA
ATOM      6  N   LIG     1      -7.129   1.998  -0.675  0.00  0.00    +0.000 N 
ATOM      7  C   LIG     1      -4.092   0.244   0.403  0.00  0.00    +0.000 A 
ATOM      8  C   LIG     1      -5.169  -1.673   0.321  0.00  0.00    +0.000 A 
ATOM      9  C   LIG     1      -5.407   0.421   0.005  0.00  0.00    +0.000 A 
ATOM     10  C   LIG     1      -3.664   2.409   0.269  0.00  0.00    +0.000 A 
ATOM     11  C   LIG     1      -5.812   1.725  -0.265  0.00  0.00    +0.000 A 
ATOM     12  H   LIG     1      -3.134   4.395   0.165  0.00  0.00    +0.000 HD
ATOM     13  H   LIG     1      -7.798   1.246  -0.778  0.00  0.00    +0.000 HD
ATOM     14  H   LIG     1      -7.398   2.953  -0.865  0.00  0.00    +0.000 HD
ENDROOT
BRANCH   1  17
ATOM     15  O   LIG     1      -1.527  -1.120   0.627  0.00  0.00    +0.000 OA
ATOM     16  C   LIG     1      -2.585  -3.223   0.438  0.00  0.00    +0.000 C 
ATOM     17  C   LIG     1      -2.711  -1.830   1.042  0.00  0.00    +0.000 C 
ATOM     18  C   LIG     1      -1.087  -3.457   0.489  0.00  0.00    +0.000 C 
ATOM     19  C   LIG     1      -0.531  -2.070   0.220  0.00  0.00    +0.000 C 
BRANCH  19  22
ATOM     20  O   LIG     1      -0.930  -0.985  -1.864  0.00  0.00    +0.000 OA
ATOM     21  N   LIG     1       0.703  -2.639  -1.747  0.00  0.00    +0.000 N 
ATOM     22  C   LIG     1      -0.287  -1.820  -1.233  0.00  0.00    +0.000 C 
ATOM     23  H   LIG     1       1.190  -3.280  -1.126  0.00  0.00    +0.000 HD
BRANCH  21  24
ATOM     24  C   LIG     1       1.113  -2.611  -3.132  0.00  0.00    +0.000 C 
ATOM     25  C   LIG     1       2.060  -1.462  -3.407  0.00  0.00    +0.000 C 
ENDBRANCH  21  24
ENDBRANCH  19  22
BRANCH  16  26
ATOM     26  O   LIG     1      -3.320  -4.185   1.167  0.00  0.00    +0.000 OA
ATOM     27  H   LIG     1      -3.106  -5.058   0.794  0.00  0.00    +0.000 HD
ENDBRANCH  16  26
BRANCH  18  28
ATOM     28  O   LIG     1      -0.698  -3.864   1.799  0.00  0.00    +0.000 OA
ATOM     29  H   LIG     1       0.269  -3.966   1.796  0.00  0.00    +0.000 HD
ENDBRANCH  18  28
ENDBRANCH   1  17
BRANCH   4  30
ATOM     30  C   LIG     1      -1.407   3.328   0.807  0.00  0.00    +0.000 C 
BRANCH  30  31
ATOM     31  C   LIG     1      -0.559   2.904  -0.385  0.00  0.00    +0.000 C 
BRANCH  31  32
ATOM     32  N   LIG     1       0.841   2.761   0.012  0.00  0.00    +0.000 NA
ATOM     33  N   LIG     1       3.417   1.529   0.089  0.00  0.00    +0.000 N 
ATOM     34  C   LIG     1       1.042   1.506   0.747  0.00  0.00    +0.000 C 
ATOM     35  C   LIG     1       1.717   2.796  -1.165  0.00  0.00    +0.000 C 
ATOM     36  C   LIG     1       2.492   1.372   1.218  0.00  0.00    +0.000 C 
ATOM     37  C   LIG     1       3.190   2.704  -0.759  0.00  0.00    +0.000 C 
BRANCH  33  40
ATOM     38 CL   LIG     1       6.338  -2.575   0.867  0.00  0.00    +0.000 Cl
ATOM     39 CL   LIG     1       8.904  -0.618   0.630  0.00  0.00    +0.000 Cl
ATOM     40  C   LIG     1       4.709   1.007   0.219  0.00  0.00    +0.000 A 
ATOM     41  C   LIG     1       4.890  -0.357   0.451  0.00  0.00    +0.000 A 
ATOM     42  C   LIG     1       5.815   1.850   0.117  0.00  0.00    +0.000 A 
ATOM     43  C   LIG     1       6.178  -0.877   0.582  0.00  0.00    +0.000 A 
ATOM     44  C   LIG     1       7.103   1.330   0.248  0.00  0.00    +0.000 A 
ATOM     45  C   LIG     1       7.284  -0.034   0.480  0.00  0.00    +0.000 A 
ENDBRANCH  33  40
ENDBRANCH  31  32
ENDBRANCH  30  31
ENDBRANCH   4  30
TORSDOF 9
