REMARK  Name = 118734340.pdb
REMARK  7 active torsions:
REMARK  status: ('A' for Active; 'I' for Inactive)
REMARK    1  A    between atoms: N_5  and  C_15
REMARK    2  A    between atoms: N_6  and  C_24
REMARK    3  A    between atoms: N_7  and  C_28
REMARK    4  A    between atoms: N_8  and  C_31
REMARK    5  A    between atoms: N_11  and  C_27
REMARK    6  A    between atoms: C_17  and  C_22
REMARK    7  A    between atoms: C_24  and  C_27
REMARK                            x       y       z     vdW  Elec       q    Type
REMARK                         _______ _______ _______ _____ _____    ______ ____
ROOT
ATOM      1  N   LIG     1      -3.624  -0.953   0.584  0.00  0.00    +0.000 N 
ATOM      2  N   LIG     1      -5.696  -0.522  -0.117  0.00  0.00    +0.000 NA
ATOM      3  N   LIG     1      -2.684   1.285   0.506  0.00  0.00    +0.000 NA
ATOM      4  N   LIG     1      -2.169   3.534   0.296  0.00  0.00    +0.000 NA
ATOM      5  N   LIG     1      -4.332   2.913  -0.262  0.00  0.00    +0.000 NA
ATOM      6  N   LIG     1      -6.571   2.298  -0.843  0.00  0.00    +0.000 NA
ATOM      7  C   LIG     1      -3.672   0.392   0.350  0.00  0.00    +0.000 A 
ATOM      8  C   LIG     1      -4.863  -1.458   0.289  0.00  0.00    +0.000 A 
ATOM      9  C   LIG     1      -4.965   0.639  -0.083  0.00  0.00    +0.000 A 
ATOM     10  C   LIG     1      -3.110   2.523   0.174  0.00  0.00    +0.000 A 
ATOM     11  C   LIG     1      -5.283   1.957  -0.395  0.00  0.00    +0.000 A 
ENDROOT
BRANCH   1  16
ATOM     12  O   LIG     1      -1.202  -1.119   0.670  0.00  0.00    +0.000 OA
ATOM     13  O   LIG     1      -3.191  -4.054   1.241  0.00  0.00    +0.000 OA
ATOM     14  O   LIG     1      -0.569  -3.877   1.928  0.00  0.00    +0.000 OA
ATOM     15  C   LIG     1      -2.382  -3.158   0.507  0.00  0.00    +0.000 C 
ATOM     16  C   LIG     1      -2.436  -1.745   1.073  0.00  0.00    +0.000 C 
ATOM     17  C   LIG     1      -0.903  -3.481   0.599  0.00  0.00    +0.000 C 
ATOM     18  C   LIG     1      -0.257  -2.137   0.311  0.00  0.00    +0.000 C 
BRANCH  18  21
ATOM     19  O   LIG     1      -0.542  -1.085  -1.809  0.00  0.00    +0.000 OA
ATOM     20  N   LIG     1       0.985  -2.832  -1.611  0.00  0.00    +0.000 NA
ATOM     21  C   LIG     1       0.035  -1.940  -1.142  0.00  0.00    +0.000 C 
BRANCH  20  22
ATOM     22  C   LIG     1       1.427  -2.865  -2.987  0.00  0.00    +0.000 C 
ATOM     23  C   LIG     1       2.448  -1.782  -3.267  0.00  0.00    +0.000 C 
ENDBRANCH  20  22
ENDBRANCH  18  21
ENDBRANCH   1  16
BRANCH   4  24
ATOM     24  C   LIG     1      -0.814   3.317   0.743  0.00  0.00    +0.000 C 
BRANCH  24  25
ATOM     25  C   LIG     1       0.034   2.812  -0.417  0.00  0.00    +0.000 C 
BRANCH  25  26
ATOM     26  N   LIG     1       1.413   2.595   0.018  0.00  0.00    +0.000 NA
ATOM     27  N   LIG     1       3.906   1.211   0.186  0.00  0.00    +0.000 N 
ATOM     28  C   LIG     1       1.520   1.349   0.788  0.00  0.00    +0.000 C 
ATOM     29  C   LIG     1       2.316   2.545  -1.139  0.00  0.00    +0.000 C 
ATOM     30  C   LIG     1       2.948   1.139   1.297  0.00  0.00    +0.000 C 
ATOM     31  C   LIG     1       3.771   2.374  -0.695  0.00  0.00    +0.000 C 
BRANCH  27  32
ATOM     32  C   LIG     1       5.160   0.615   0.361  0.00  0.00    +0.000 A 
ATOM     33  C   LIG     1       6.319   1.386   0.266  0.00  0.00    +0.000 A 
ATOM     34  C   LIG     1       5.252  -0.751   0.630  0.00  0.00    +0.000 A 
ATOM     35  C   LIG     1       7.569   0.791   0.439  0.00  0.00    +0.000 A 
ATOM     36  C   LIG     1       6.502  -1.345   0.804  0.00  0.00    +0.000 A 
ATOM     37  C   LIG     1       7.660  -0.574   0.708  0.00  0.00    +0.000 A 
ENDBRANCH  27  32
ENDBRANCH  25  26
ENDBRANCH  24  25
ENDBRANCH   4  24
TORSDOF 7
