REMARK  Name = 118734349.pdb
REMARK  11 active torsions:
REMARK  status: ('A' for Active; 'I' for Inactive)
REMARK    1  A    between atoms: O_2  and  C_17
REMARK    2  A    between atoms: O_3  and  C_19
REMARK    3  A    between atoms: N_7  and  C_18
REMARK    4  A    between atoms: N_8  and  C_27
REMARK    5  A    between atoms: N_9  and  C_31
REMARK    6  A    between atoms: N_10  and  C_34
REMARK    7  A    between atoms: N_13  and  C_30
REMARK    8  A    between atoms: N_16  and  C_40
REMARK    9  A    between atoms: C_20  and  C_25
REMARK   10  A    between atoms: C_27  and  C_30
REMARK   11  A    between atoms: C_34  and  C_39
REMARK                            x       y       z     vdW  Elec       q    Type
REMARK                         _______ _______ _______ _____ _____    ______ ____
ROOT
ATOM      1  N   LIG     1      -4.249  -1.102   0.631  0.00  0.00    +0.000 N 
ATOM      2  N   LIG     1      -6.363  -0.776   0.003  0.00  0.00    +0.000 NA
ATOM      3  N   LIG     1      -3.437   1.186   0.568  0.00  0.00    +0.000 NA
ATOM      4  N   LIG     1      -3.055   3.464   0.387  0.00  0.00    +0.000 N 
ATOM      5  N   LIG     1      -5.197   2.732  -0.115  0.00  0.00    +0.000 NA
ATOM      6  N   LIG     1      -7.416   2.004  -0.639  0.00  0.00    +0.000 N 
ATOM      7  C   LIG     1      -4.379   0.242   0.425  0.00  0.00    +0.000 A 
ATOM      8  C   LIG     1      -5.467  -1.670   0.364  0.00  0.00    +0.000 A 
ATOM      9  C   LIG     1      -5.697   0.423   0.037  0.00  0.00    +0.000 A 
ATOM     10  C   LIG     1      -3.942   2.404   0.274  0.00  0.00    +0.000 A 
ATOM     11  C   LIG     1      -6.097   1.727  -0.238  0.00  0.00    +0.000 A 
ATOM     12  H   LIG     1      -3.402   4.386   0.153  0.00  0.00    +0.000 HD
ATOM     13  H   LIG     1      -8.089   1.255  -0.732  0.00  0.00    +0.000 HD
ATOM     14  H   LIG     1      -7.682   2.959  -0.834  0.00  0.00    +0.000 HD
ENDROOT
BRANCH   1  17
ATOM     15  O   LIG     1      -1.819  -1.133   0.638  0.00  0.00    +0.000 OA
ATOM     16  C   LIG     1      -2.889  -3.232   0.471  0.00  0.00    +0.000 C 
ATOM     17  C   LIG     1      -3.003  -1.835   1.067  0.00  0.00    +0.000 C 
ATOM     18  C   LIG     1      -1.392  -3.473   0.511  0.00  0.00    +0.000 C 
ATOM     19  C   LIG     1      -0.831  -2.090   0.230  0.00  0.00    +0.000 C 
BRANCH  19  22
ATOM     20  O   LIG     1      -1.242  -1.017  -1.858  0.00  0.00    +0.000 OA
ATOM     21  N   LIG     1       0.385  -2.679  -1.743  0.00  0.00    +0.000 N 
ATOM     22  C   LIG     1      -0.598  -1.851  -1.227  0.00  0.00    +0.000 C 
ATOM     23  H   LIG     1       0.873  -3.317  -1.123  0.00  0.00    +0.000 HD
BRANCH  21  24
ATOM     24  C   LIG     1       0.783  -2.662  -3.132  0.00  0.00    +0.000 C 
ATOM     25  C   LIG     1       1.734  -1.518  -3.422  0.00  0.00    +0.000 C 
ENDBRANCH  21  24
ENDBRANCH  19  22
BRANCH  16  26
ATOM     26  O   LIG     1      -3.623  -4.186   1.212  0.00  0.00    +0.000 OA
ATOM     27  H   LIG     1      -3.416  -5.062   0.843  0.00  0.00    +0.000 HD
ENDBRANCH  16  26
BRANCH  18  28
ATOM     28  O   LIG     1      -0.995  -3.874   1.821  0.00  0.00    +0.000 OA
ATOM     29  H   LIG     1      -0.028  -3.980   1.811  0.00  0.00    +0.000 HD
ENDBRANCH  18  28
ENDBRANCH   1  17
BRANCH   4  30
ATOM     30  C   LIG     1      -1.677   3.315   0.788  0.00  0.00    +0.000 C 
BRANCH  30  31
ATOM     31  C   LIG     1      -0.840   2.880  -0.408  0.00  0.00    +0.000 C 
BRANCH  31  32
ATOM     32  N   LIG     1       0.563   2.732  -0.021  0.00  0.00    +0.000 NA
ATOM     33  N   LIG     1       3.133   1.488   0.043  0.00  0.00    +0.000 N 
ATOM     34  C   LIG     1       1.429   2.755  -1.205  0.00  0.00    +0.000 C 
ATOM     35  C   LIG     1       0.764   1.481   0.721  0.00  0.00    +0.000 C 
ATOM     36  C   LIG     1       2.905   2.658  -0.810  0.00  0.00    +0.000 C 
ATOM     37  C   LIG     1       2.217   1.343   1.181  0.00  0.00    +0.000 C 
BRANCH  33  38
ATOM     38  C   LIG     1       4.423   0.960   0.167  0.00  0.00    +0.000 A 
ATOM     39  C   LIG     1       5.534   1.797   0.051  0.00  0.00    +0.000 A 
ATOM     40  C   LIG     1       4.599  -0.403   0.405  0.00  0.00    +0.000 A 
ATOM     41  C   LIG     1       6.819   1.271   0.173  0.00  0.00    +0.000 A 
ATOM     42  C   LIG     1       5.886  -0.929   0.527  0.00  0.00    +0.000 A 
ATOM     43  C   LIG     1       6.995  -0.092   0.411  0.00  0.00    +0.000 A 
BRANCH  43  46
ATOM     44  O   LIG     1       9.289   0.143   0.428  0.00  0.00    +0.000 OA
ATOM     45  O   LIG     1       8.441  -1.856   0.750  0.00  0.00    +0.000 OA
ATOM     46  N   LIG     1       8.305  -0.627   0.535  0.00  0.00    +0.000 N 
ENDBRANCH  43  46
ENDBRANCH  33  38
ENDBRANCH  31  32
ENDBRANCH  30  31
ENDBRANCH   4  30
TORSDOF 10
