REMARK VINA RESULT:      -6.5      3.175      6.060
REMARK  Name = ADN.pdb
REMARK  6 active torsions:
REMARK  status: ('A' for Active; 'I' for Inactive)
REMARK    1  A    between atoms: O5'_1  and  C5'_2
REMARK    2  A    between atoms: C5'_2  and  C4'_3
REMARK    3  A    between atoms: C3'_5  and  O3'_6
REMARK    4  A    between atoms: C2'_7  and  O2'_8
REMARK    5  A    between atoms: C1'_9  and  N9_10
REMARK    6  A    between atoms: C6_14  and  N6_15
REMARK                            x       y       z     vdW  Elec       q    Type
REMARK                         _______ _______ _______ _____ _____    ______ ____
ROOT
ATOM      1  N9  ADN     0      -2.797   1.469  -8.596  0.00  0.00    +0.000 N 
ATOM      2  C8  ADN     0      -3.790   0.665  -9.071  0.00  0.00    +0.000 A 
ATOM      3  N7  ADN     0      -3.901  -0.395  -8.325  0.00  0.00    +0.000 NA
ATOM      4  C5  ADN     0      -2.984  -0.341  -7.328  0.00  0.00    +0.000 A 
ATOM      5  C6  ADN     0      -2.651  -1.175  -6.246  0.00  0.00    +0.000 C 
ATOM      6  N1  ADN     0      -1.671  -0.797  -5.434  0.00  0.00    +0.000 NA
ATOM      7  C2  ADN     0      -1.023   0.338  -5.628  0.00  0.00    +0.000 C 
ATOM      8  N3  ADN     0      -1.304   1.153  -6.623  0.00  0.00    +0.000 N 
ATOM      9  C4  ADN     0      -2.270   0.857  -7.486  0.00  0.00    +0.000 A 
ATOM     10  H   ADN     0      -0.795   1.989  -6.727  0.00  0.00    +0.000 HD
ENDROOT
BRANCH   1  15
ATOM     11  C4' ADN     0      -2.399   4.040 -11.063  0.00  0.00    +0.000 C 
ATOM     12  O4' ADN     0      -3.179   3.082 -10.314  0.00  0.00    +0.000 OA
ATOM     13  C3' ADN     0      -0.951   3.511 -10.989  0.00  0.00    +0.000 C 
ATOM     14  C2' ADN     0      -0.931   2.643  -9.708  0.00  0.00    +0.000 C 
ATOM     15  C1' ADN     0      -2.372   2.749  -9.164  0.00  0.00    +0.000 C 
BRANCH  13  16
ATOM     16  O3' ADN     0      -0.027   4.596 -10.874  0.00  0.00    +0.000 OA
ATOM     17 HO3' ADN     0       0.824   4.212 -10.621  0.00  0.00    +0.000 HD
ENDBRANCH  13  16
BRANCH  14  18
ATOM     18  O2' ADN     0       0.007   3.165  -8.765  0.00  0.00    +0.000 OA
ATOM     19 HO2' ADN     0      -0.446   3.865  -8.277  0.00  0.00    +0.000 HD
ENDBRANCH  14  18
BRANCH  11  20
ATOM     20  C5' ADN     0      -2.876   4.095 -12.515  0.00  0.00    +0.000 C 
BRANCH  20  21
ATOM     21  O5' ADN     0      -2.021   4.962 -13.264  0.00  0.00    +0.000 OA
ATOM     22 HO5' ADN     0      -2.589   5.459 -13.869  0.00  0.00    +0.000 HD
ENDBRANCH  20  21
ENDBRANCH  11  20
ENDBRANCH   1  15
BRANCH   5  23
ATOM     23  N6  ADN     0      -3.324  -2.365  -6.036  0.00  0.00    +0.000 NA
ATOM     24 HN61 ADN     0      -3.028  -3.175  -6.482  0.00  0.00    +0.000 HD
ATOM     25 HN62 ADN     0      -4.089  -2.392  -5.440  0.00  0.00    +0.000 HD
ENDBRANCH   5  23
TORSDOF 6
