REMARK VINA RESULT:      -6.7      4.175      6.213
REMARK  Name = NEC.pdb
REMARK  7 active torsions:
REMARK  status: ('A' for Active; 'I' for Inactive)
REMARK    1  A    between atoms: C5'_1  and  C4'_6
REMARK    2  A    between atoms: N5'_3  and  C51_4
REMARK    3  A    between atoms: C51_4  and  C52_5
REMARK    4  A    between atoms: C3'_8  and  O3'_9
REMARK    5  A    between atoms: C2'_10  and  O2'_11
REMARK    6  A    between atoms: C1'_12  and  N9_13
REMARK    7  A    between atoms: C6_17  and  N6_18
REMARK                            x       y       z     vdW  Elec       q    Type
REMARK                         _______ _______ _______ _____ _____    ______ ____
ROOT
ATOM      1  C4' NEC     0      -2.065   3.734 -11.309  0.00  0.00    +0.000 C 
ATOM      2  O4' NEC     0      -2.768   3.909 -12.557  0.00  0.00    +0.000 OA
ATOM      3  C3' NEC     0      -1.925   5.178 -10.764  0.00  0.00    +0.000 C 
ATOM      4  C2' NEC     0      -1.684   5.991 -12.061  0.00  0.00    +0.000 C 
ATOM      5  C1' NEC     0      -2.228   5.085 -13.182  0.00  0.00    +0.000 C 
ENDROOT
BRANCH   5   6
ATOM      6  N9  NEC     0      -3.280   5.783 -13.923  0.00  0.00    +0.000 N 
ATOM      7  C8  NEC     0      -3.809   7.001 -13.617  0.00  0.00    +0.000 A 
ATOM      8  N7  NEC     0      -4.724   7.321 -14.487  0.00  0.00    +0.000 NA
ATOM      9  C5  NEC     0      -4.838   6.330 -15.405  0.00  0.00    +0.000 A 
ATOM     10  C6  NEC     0      -5.635   6.126 -16.544  0.00  0.00    +0.000 C 
ATOM     11  N1  NEC     0      -5.477   5.002 -17.234  0.00  0.00    +0.000 NA
ATOM     12  C2  NEC     0      -4.595   4.092 -16.865  0.00  0.00    +0.000 C 
ATOM     13  N3  NEC     0      -3.827   4.241 -15.806  0.00  0.00    +0.000 N 
ATOM     14  C4  NEC     0      -3.910   5.336 -15.057  0.00  0.00    +0.000 A 
ATOM     15  H   NEC     0      -3.185   3.534 -15.566  0.00  0.00    +0.000 HD
BRANCH  10  16
ATOM     16  N6  NEC     0      -6.562   7.074 -16.939  0.00  0.00    +0.000 NA
ATOM     17 HN61 NEC     0      -7.179   6.879 -17.661  0.00  0.00    +0.000 HD
ATOM     18 HN62 NEC     0      -6.596   7.934 -16.491  0.00  0.00    +0.000 HD
ENDBRANCH  10  16
ENDBRANCH   5   6
BRANCH   1  19
ATOM     19  C5' NEC     0      -2.871   2.885 -10.360  0.00  0.00    +0.000 C 
ATOM     20  O5' NEC     0      -2.527   2.777  -9.202  0.00  0.00    +0.000 OA
ATOM     21  N5' NEC     0      -3.975   2.248 -10.798  0.00  0.00    +0.000 N 
ATOM     22  HN5 NEC     0      -4.250   2.334 -11.723  0.00  0.00    +0.000 HD
BRANCH  21  23
ATOM     23  C51 NEC     0      -4.759   1.424  -9.875  0.00  0.00    +0.000 C 
ATOM     24  C52 NEC     0      -5.764   0.586 -10.667  0.00  0.00    +0.000 C 
ENDBRANCH  21  23
ENDBRANCH   1  19
BRANCH   3  25
ATOM     25  O3' NEC     0      -0.809   5.288  -9.878  0.00  0.00    +0.000 OA
ATOM     26 HO3' NEC     0      -0.282   6.040 -10.183  0.00  0.00    +0.000 HD
ENDBRANCH   3  25
BRANCH   4  27
ATOM     27  O2' NEC     0      -0.287   6.233 -12.247  0.00  0.00    +0.000 OA
ATOM     28 HO2' NEC     0       0.081   5.438 -12.658  0.00  0.00    +0.000 HD
ENDBRANCH   4  27
TORSDOF 6
