REMARK VINA RESULT:      -7.7      3.172     12.560
REMARK  Name = NGI.pdb
REMARK  14 active torsions:
REMARK  status: ('A' for Active; 'I' for Inactive)
REMARK    1  A    between atoms: C1_1  and  C2_4
REMARK    2  A    between atoms: N1_2  and  C2_4
REMARK    3  A    between atoms: N2_5  and  C5_13
REMARK    4  A    between atoms: C3_7  and  C4_10
REMARK    5  A    between atoms: O3_9  and  C6_16
REMARK    6  A    between atoms: N4_11  and  C10_23
REMARK    7  A    between atoms: O4_12  and  C7_19
REMARK    8  A    between atoms: O5_15  and  C20_33
REMARK    9  A    between atoms: N6_17  and  C12_25
REMARK   10  A    between atoms: C12_25  and  C13_26
REMARK   11  A    between atoms: C13_26  and  C14_27
REMARK   12  A    between atoms: C17_30  and  C18_31
REMARK   13  A    between atoms: C18_31  and  C19_32
REMARK   14  A    between atoms: C19_32  and  C20_33
REMARK                            x       y       z     vdW  Elec       q    Type
REMARK                         _______ _______ _______ _____ _____    ______ ____
ROOT
ATOM      1  N2  NGI     0      -3.833   1.731 -10.213  0.00  0.00    +0.000 N 
ATOM      2  N3  NGI     0      -5.782   1.654 -11.194  0.00  0.00    +0.000 NA
ATOM      3  N5  NGI     0      -4.377   4.352 -13.256  0.00  0.00    +0.000 NA
ATOM      4  N6  NGI     0      -2.239   5.275 -13.066  0.00  0.00    +0.000 N 
ATOM      5  N7  NGI     0      -2.914   3.559 -11.639  0.00  0.00    +0.000 N 
ATOM      6  C8  NGI     0      -5.059   1.133 -10.246  0.00  0.00    +0.000 A 
ATOM      7  C9  NGI     0      -5.071   2.623 -11.822  0.00  0.00    +0.000 A 
ATOM      8  C10 NGI     0      -5.329   3.503 -12.889  0.00  0.00    +0.000 C 
ATOM      9  C11 NGI     0      -3.199   4.368 -12.645  0.00  0.00    +0.000 C 
ATOM     10  C23 NGI     0      -3.812   2.681 -11.202  0.00  0.00    +0.000 A 
ATOM     11  HN6 NGI     0      -1.373   5.301 -12.633  0.00  0.00    +0.000 HD
ATOM     12  H   NGI     0      -2.029   3.606 -11.210  0.00  0.00    +0.000 HD
ENDROOT
BRANCH   1  15
ATOM     13  O2  NGI     0      -3.075   0.261  -8.489  0.00  0.00    +0.000 OA
ATOM     14  C4  NGI     0      -2.219   0.340  -7.329  0.00  0.00    +0.000 C 
ATOM     15  C5  NGI     0      -2.743   1.419  -9.286  0.00  0.00    +0.000 C 
ATOM     16  C6  NGI     0      -2.561   2.563  -8.264  0.00  0.00    +0.000 C 
ATOM     17  C7  NGI     0      -2.209   1.836  -6.947  0.00  0.00    +0.000 C 
BRANCH  14  20
ATOM     18  N1  NGI     0      -2.640  -1.825  -6.206  0.00  0.00    +0.000 N 
ATOM     19  O1  NGI     0      -3.373   0.058  -5.290  0.00  0.00    +0.000 OA
ATOM     20  C3  NGI     0      -2.785  -0.485  -6.202  0.00  0.00    +0.000 C 
ATOM     21  HN1 NGI     0      -2.170  -2.259  -6.936  0.00  0.00    +0.000 HD
BRANCH  18  23
ATOM     22  C1  NGI     0      -2.047  -3.187  -4.264  0.00  0.00    +0.000 C 
ATOM     23  C2  NGI     0      -3.191  -2.625  -5.110  0.00  0.00    +0.000 C 
ENDBRANCH  18  23
ENDBRANCH  14  20
BRANCH  16  24
ATOM     24  O3  NGI     0      -1.493   3.424  -8.662  0.00  0.00    +0.000 OA
ATOM     25  HO3 NGI     0      -1.139   3.232  -9.541  0.00  0.00    +0.000 HD
ENDBRANCH  16  24
BRANCH  17  26
ATOM     26  O4  NGI     0      -0.912   2.228  -6.490  0.00  0.00    +0.000 OA
ATOM     27  HO4 NGI     0      -0.914   2.665  -5.627  0.00  0.00    +0.000 HD
ENDBRANCH  17  26
ENDBRANCH   1  15
BRANCH   8  28
ATOM     28  N4  NGI     0      -6.549   3.482 -13.541  0.00  0.00    +0.000 NA
ATOM     29  HN4 NGI     0      -6.660   2.949 -14.343  0.00  0.00    +0.000 HD
ATOM     30 HN4A NGI     0      -7.292   4.000 -13.197  0.00  0.00    +0.000 HD
ENDBRANCH   8  28
BRANCH   4  31
ATOM     31  C12 NGI     0      -2.533   6.193 -14.170  0.00  0.00    +0.000 C 
BRANCH  31  32
ATOM     32  C13 NGI     0      -2.868   5.389 -15.428  0.00  0.00    +0.000 C 
BRANCH  32  33
ATOM     33  C14 NGI     0      -3.885   6.140 -16.248  0.00  0.00    +0.000 A 
ATOM     34  C15 NGI     0      -3.923   7.521 -16.206  0.00  0.00    +0.000 A 
ATOM     35  C16 NGI     0      -4.857   8.209 -16.959  0.00  0.00    +0.000 A 
ATOM     36  C17 NGI     0      -5.752   7.516 -17.753  0.00  0.00    +0.000 A 
ATOM     37  C21 NGI     0      -5.713   6.136 -17.795  0.00  0.00    +0.000 A 
ATOM     38  C22 NGI     0      -4.776   5.447 -17.047  0.00  0.00    +0.000 A 
BRANCH  36  39
ATOM     39  C18 NGI     0      -6.768   8.268 -18.573  0.00  0.00    +0.000 C 
BRANCH  39  40
ATOM     40  C19 NGI     0      -6.562   7.952 -20.055  0.00  0.00    +0.000 C 
BRANCH  40  42
ATOM     41  O6  NGI     0      -5.239   9.836 -20.559  0.00  0.00    +0.000 OA
ATOM     42  C20 NGI     0      -5.308   8.629 -20.544  0.00  0.00    +0.000 C 
BRANCH  42  43
ATOM     43  O5  NGI     0      -4.266   7.892 -20.961  0.00  0.00    +0.000 OA
ATOM     44  HO5 NGI     0      -4.022   7.131 -20.417  0.00  0.00    +0.000 HD
ENDBRANCH  42  43
ENDBRANCH  40  42
ENDBRANCH  39  40
ENDBRANCH  36  39
ENDBRANCH  32  33
ENDBRANCH  31  32
ENDBRANCH   4  31
TORSDOF 13
