REMARK VINA RESULT:      -8.1      2.193      3.622
REMARK  Name = NGI.pdb
REMARK  14 active torsions:
REMARK  status: ('A' for Active; 'I' for Inactive)
REMARK    1  A    between atoms: C1_1  and  C2_4
REMARK    2  A    between atoms: N1_2  and  C2_4
REMARK    3  A    between atoms: N2_5  and  C5_13
REMARK    4  A    between atoms: C3_7  and  C4_10
REMARK    5  A    between atoms: O3_9  and  C6_16
REMARK    6  A    between atoms: N4_11  and  C10_23
REMARK    7  A    between atoms: O4_12  and  C7_19
REMARK    8  A    between atoms: O5_15  and  C20_33
REMARK    9  A    between atoms: N6_17  and  C12_25
REMARK   10  A    between atoms: C12_25  and  C13_26
REMARK   11  A    between atoms: C13_26  and  C14_27
REMARK   12  A    between atoms: C17_30  and  C18_31
REMARK   13  A    between atoms: C18_31  and  C19_32
REMARK   14  A    between atoms: C19_32  and  C20_33
REMARK                            x       y       z     vdW  Elec       q    Type
REMARK                         _______ _______ _______ _____ _____    ______ ____
ROOT
ATOM      1  N2  NGI     0      -5.171   3.772 -13.340  0.00  0.00    +0.000 N 
ATOM      2  N3  NGI     0      -5.856   2.154 -12.045  0.00  0.00    +0.000 NA
ATOM      3  N5  NGI     0      -2.716   2.825 -10.257  0.00  0.00    +0.000 NA
ATOM      4  N6  NGI     0      -1.125   4.444 -10.806  0.00  0.00    +0.000 N 
ATOM      5  N7  NGI     0      -3.053   4.201 -12.094  0.00  0.00    +0.000 N 
ATOM      6  C8  NGI     0      -6.153   2.856 -13.099  0.00  0.00    +0.000 A 
ATOM      7  C9  NGI     0      -4.664   2.568 -11.549  0.00  0.00    +0.000 A 
ATOM      8  C10 NGI     0      -3.864   2.187 -10.456  0.00  0.00    +0.000 C 
ATOM      9  C11 NGI     0      -2.331   3.811 -11.057  0.00  0.00    +0.000 C 
ATOM     10  C23 NGI     0      -4.212   3.613 -12.372  0.00  0.00    +0.000 A 
ATOM     11  HN6 NGI     0      -0.828   5.167 -11.380  0.00  0.00    +0.000 HD
ATOM     12  H   NGI     0      -2.729   4.935 -12.666  0.00  0.00    +0.000 HD
ENDROOT
BRANCH   1  15
ATOM     13  O2  NGI     0      -6.483   5.173 -14.762  0.00  0.00    +0.000 OA
ATOM     14  C4  NGI     0      -6.398   5.699 -16.104  0.00  0.00    +0.000 C 
ATOM     15  C5  NGI     0      -5.143   4.744 -14.436  0.00  0.00    +0.000 C 
ATOM     16  C6  NGI     0      -4.614   4.083 -15.728  0.00  0.00    +0.000 C 
ATOM     17  C7  NGI     0      -5.459   4.725 -16.851  0.00  0.00    +0.000 C 
BRANCH  14  20
ATOM     18  N1  NGI     0      -7.990   4.974 -17.854  0.00  0.00    +0.000 N 
ATOM     19  O1  NGI     0      -8.648   6.391 -16.278  0.00  0.00    +0.000 OA
ATOM     20  C3  NGI     0      -7.759   5.713 -16.751  0.00  0.00    +0.000 C 
ATOM     21  HN1 NGI     0      -7.280   4.432 -18.232  0.00  0.00    +0.000 HD
BRANCH  18  23
ATOM     22  C1  NGI     0      -9.251   4.250 -19.819  0.00  0.00    +0.000 C 
ATOM     23  C2  NGI     0      -9.313   4.989 -18.481  0.00  0.00    +0.000 C 
ENDBRANCH  18  23
ENDBRANCH  14  20
BRANCH  16  24
ATOM     24  O3  NGI     0      -3.229   4.380 -15.911  0.00  0.00    +0.000 OA
ATOM     25  HO3 NGI     0      -3.058   5.073 -16.563  0.00  0.00    +0.000 HD
ENDBRANCH  16  24
BRANCH  17  26
ATOM     26  O4  NGI     0      -4.620   5.438 -17.762  0.00  0.00    +0.000 OA
ATOM     27  HO4 NGI     0      -4.129   4.870 -18.372  0.00  0.00    +0.000 HD
ENDBRANCH  17  26
ENDBRANCH   1  15
BRANCH   8  28
ATOM     28  N4  NGI     0      -4.265   1.171  -9.608  0.00  0.00    +0.000 NA
ATOM     29  HN4 NGI     0      -3.601   0.634  -9.148  0.00  0.00    +0.000 HD
ATOM     30 HN4A NGI     0      -5.208   0.994  -9.474  0.00  0.00    +0.000 HD
ENDBRANCH   8  28
BRANCH   4  31
ATOM     31  C12 NGI     0      -0.299   4.023  -9.672  0.00  0.00    +0.000 C 
BRANCH  31  32
ATOM     32  C13 NGI     0       0.075   2.548  -9.834  0.00  0.00    +0.000 C 
BRANCH  32  33
ATOM     33  C14 NGI     0      -0.455   1.764  -8.661  0.00  0.00    +0.000 A 
ATOM     34  C15 NGI     0      -0.457   0.382  -8.698  0.00  0.00    +0.000 A 
ATOM     35  C16 NGI     0      -0.944  -0.337  -7.623  0.00  0.00    +0.000 A 
ATOM     36  C17 NGI     0      -1.429   0.326  -6.510  0.00  0.00    +0.000 A 
ATOM     37  C21 NGI     0      -1.427   1.707  -6.473  0.00  0.00    +0.000 A 
ATOM     38  C22 NGI     0      -0.934   2.426  -7.546  0.00  0.00    +0.000 A 
BRANCH  36  39
ATOM     39  C18 NGI     0      -1.959  -0.459  -5.338  0.00  0.00    +0.000 C 
BRANCH  39  40
ATOM     40  C19 NGI     0      -2.701  -1.697  -5.846  0.00  0.00    +0.000 C 
BRANCH  40  42
ATOM     41  O6  NGI     0      -1.238  -3.317  -4.958  0.00  0.00    +0.000 OA
ATOM     42  C20 NGI     0      -2.363  -2.878  -4.973  0.00  0.00    +0.000 C 
BRANCH  42  43
ATOM     43  O5  NGI     0      -3.314  -3.442  -4.212  0.00  0.00    +0.000 OA
ATOM     44  HO5 NGI     0      -3.124  -3.533  -3.268  0.00  0.00    +0.000 HD
ENDBRANCH  42  43
ENDBRANCH  40  42
ENDBRANCH  39  40
ENDBRANCH  36  39
ENDBRANCH  32  33
ENDBRANCH  31  32
ENDBRANCH   4  31
TORSDOF 13
