REMARK VINA RESULT:      -7.1      4.399     11.380
REMARK  Name = NGI.pdb
REMARK  14 active torsions:
REMARK  status: ('A' for Active; 'I' for Inactive)
REMARK    1  A    between atoms: C1_1  and  C2_4
REMARK    2  A    between atoms: N1_2  and  C2_4
REMARK    3  A    between atoms: N2_5  and  C5_13
REMARK    4  A    between atoms: C3_7  and  C4_10
REMARK    5  A    between atoms: O3_9  and  C6_16
REMARK    6  A    between atoms: N4_11  and  C10_23
REMARK    7  A    between atoms: O4_12  and  C7_19
REMARK    8  A    between atoms: O5_15  and  C20_33
REMARK    9  A    between atoms: N6_17  and  C12_25
REMARK   10  A    between atoms: C12_25  and  C13_26
REMARK   11  A    between atoms: C13_26  and  C14_27
REMARK   12  A    between atoms: C17_30  and  C18_31
REMARK   13  A    between atoms: C18_31  and  C19_32
REMARK   14  A    between atoms: C19_32  and  C20_33
REMARK                            x       y       z     vdW  Elec       q    Type
REMARK                         _______ _______ _______ _____ _____    ______ ____
ROOT
ATOM      1  N2  NGI     0      -3.432   6.132 -14.516  0.00  0.00    +0.000 N 
ATOM      2  N3  NGI     0      -4.184   8.076 -15.164  0.00  0.00    +0.000 NA
ATOM      3  N5  NGI     0      -5.633   6.123 -17.920  0.00  0.00    +0.000 NA
ATOM      4  N6  NGI     0      -5.447   3.816 -18.233  0.00  0.00    +0.000 N 
ATOM      5  N7  NGI     0      -4.438   4.842 -16.399  0.00  0.00    +0.000 N 
ATOM      6  C8  NGI     0      -3.483   7.469 -14.251  0.00  0.00    +0.000 A 
ATOM      7  C9  NGI     0      -4.618   7.170 -16.075  0.00  0.00    +0.000 A 
ATOM      8  C10 NGI     0      -5.393   7.243 -17.247  0.00  0.00    +0.000 C 
ATOM      9  C11 NGI     0      -5.169   4.955 -17.495  0.00  0.00    +0.000 C 
ATOM     10  C23 NGI     0      -4.143   5.913 -15.668  0.00  0.00    +0.000 A 
ATOM     11  HN6 NGI     0      -5.117   2.954 -17.939  0.00  0.00    +0.000 HD
ATOM     12  H   NGI     0      -4.109   3.956 -16.121  0.00  0.00    +0.000 HD
ENDROOT
BRANCH   1  15
ATOM     13  O2  NGI     0      -3.662   4.090 -13.297  0.00  0.00    +0.000 OA
ATOM     14  C4  NGI     0      -3.033   3.455 -12.163  0.00  0.00    +0.000 C 
ATOM     15  C5  NGI     0      -2.738   5.117 -13.720  0.00  0.00    +0.000 C 
ATOM     16  C6  NGI     0      -2.206   5.734 -12.407  0.00  0.00    +0.000 C 
ATOM     17  C7  NGI     0      -2.406   4.616 -11.359  0.00  0.00    +0.000 C 
BRANCH  14  20
ATOM     18  N1  NGI     0      -3.675   2.024 -10.250  0.00  0.00    +0.000 N 
ATOM     19  O1  NGI     0      -5.235   2.794 -11.627  0.00  0.00    +0.000 OA
ATOM     20  C3  NGI     0      -4.061   2.735 -11.328  0.00  0.00    +0.000 C 
ATOM     21  HN1 NGI     0      -2.736   1.977 -10.011  0.00  0.00    +0.000 HD
BRANCH  18  23
ATOM     22  C1  NGI     0      -4.043   0.078  -8.817  0.00  0.00    +0.000 C 
ATOM     23  C2  NGI     0      -4.675   1.324  -9.439  0.00  0.00    +0.000 C 
ENDBRANCH  18  23
ENDBRANCH  14  20
BRANCH  16  24
ATOM     24  O3  NGI     0      -0.822   6.062 -12.532  0.00  0.00    +0.000 OA
ATOM     25  HO3 NGI     0      -0.535   6.785 -11.958  0.00  0.00    +0.000 HD
ENDBRANCH  16  24
BRANCH  17  26
ATOM     26  O4  NGI     0      -1.149   4.219 -10.805  0.00  0.00    +0.000 OA
ATOM     27  HO4 NGI     0      -0.841   4.785 -10.084  0.00  0.00    +0.000 HD
ENDBRANCH  17  26
ENDBRANCH   1  15
BRANCH   8  28
ATOM     28  N4  NGI     0      -5.893   8.454 -17.688  0.00  0.00    +0.000 NA
ATOM     29  HN4 NGI     0      -6.852   8.590 -17.746  0.00  0.00    +0.000 HD
ATOM     30 HN4A NGI     0      -5.287   9.168 -17.939  0.00  0.00    +0.000 HD
ENDBRANCH   8  28
BRANCH   4  31
ATOM     31  C12 NGI     0      -6.243   3.915 -19.460  0.00  0.00    +0.000 C 
BRANCH  31  32
ATOM     32  C13 NGI     0      -6.176   2.589 -20.220  0.00  0.00    +0.000 C 
BRANCH  32  33
ATOM     33  C14 NGI     0      -7.554   1.983 -20.297  0.00  0.00    +0.000 A 
ATOM     34  C15 NGI     0      -8.648   2.788 -20.555  0.00  0.00    +0.000 A 
ATOM     35  C16 NGI     0      -9.912   2.232 -20.625  0.00  0.00    +0.000 A 
ATOM     36  C17 NGI     0     -10.082   0.873 -20.436  0.00  0.00    +0.000 A 
ATOM     37  C21 NGI     0      -8.988   0.070 -20.178  0.00  0.00    +0.000 A 
ATOM     38  C22 NGI     0      -7.723   0.623 -20.114  0.00  0.00    +0.000 A 
BRANCH  36  39
ATOM     39  C18 NGI     0     -11.460   0.268 -20.513  0.00  0.00    +0.000 C 
BRANCH  39  40
ATOM     40  C19 NGI     0     -11.374  -1.234 -20.240  0.00  0.00    +0.000 C 
BRANCH  40  42
ATOM     41  O6  NGI     0     -13.726  -1.142 -20.118  0.00  0.00    +0.000 OA
ATOM     42  C20 NGI     0     -12.725  -1.743 -19.807  0.00  0.00    +0.000 C 
BRANCH  42  43
ATOM     43  O5  NGI     0     -12.815  -2.866 -19.076  0.00  0.00    +0.000 OA
ATOM     44  HO5 NGI     0     -12.092  -3.049 -18.461  0.00  0.00    +0.000 HD
ENDBRANCH  42  43
ENDBRANCH  40  42
ENDBRANCH  39  40
ENDBRANCH  36  39
ENDBRANCH  32  33
ENDBRANCH  31  32
ENDBRANCH   4  31
TORSDOF 13
