REMARK VINA RESULT:      -9.4      2.340      3.653
REMARK  Name = NGI.pdb
REMARK  14 active torsions:
REMARK  status: ('A' for Active; 'I' for Inactive)
REMARK    1  A    between atoms: C1_1  and  C2_4
REMARK    2  A    between atoms: N1_2  and  C2_4
REMARK    3  A    between atoms: N2_5  and  C5_13
REMARK    4  A    between atoms: C3_7  and  C4_10
REMARK    5  A    between atoms: O3_9  and  C6_16
REMARK    6  A    between atoms: N4_11  and  C10_23
REMARK    7  A    between atoms: O4_12  and  C7_19
REMARK    8  A    between atoms: O5_15  and  C20_33
REMARK    9  A    between atoms: N6_17  and  C12_25
REMARK   10  A    between atoms: C12_25  and  C13_26
REMARK   11  A    between atoms: C13_26  and  C14_27
REMARK   12  A    between atoms: C17_30  and  C18_31
REMARK   13  A    between atoms: C18_31  and  C19_32
REMARK   14  A    between atoms: C19_32  and  C20_33
REMARK                            x       y       z     vdW  Elec       q    Type
REMARK                         _______ _______ _______ _____ _____    ______ ____
ROOT
ATOM      1  N2  NGI     0      -6.400   6.490 -16.867  0.00  0.00    +0.000 N 
ATOM      2  N3  NGI     0      -4.315   7.122 -16.738  0.00  0.00    +0.000 NA
ATOM      3  N5  NGI     0      -4.171   4.642 -14.030  0.00  0.00    +0.000 NA
ATOM      4  N6  NGI     0      -5.930   3.300 -13.283  0.00  0.00    +0.000 N 
ATOM      5  N7  NGI     0      -6.259   4.810 -15.028  0.00  0.00    +0.000 N 
ATOM      6  C8  NGI     0      -5.437   7.314 -17.369  0.00  0.00    +0.000 A 
ATOM      7  C9  NGI     0      -4.490   6.171 -15.788  0.00  0.00    +0.000 A 
ATOM      8  C10 NGI     0      -3.655   5.570 -14.828  0.00  0.00    +0.000 C 
ATOM      9  C11 NGI     0      -5.441   4.273 -14.139  0.00  0.00    +0.000 C 
ATOM     10  C23 NGI     0      -5.828   5.752 -15.862  0.00  0.00    +0.000 A 
ATOM     11  HN6 NGI     0      -6.854   3.017 -13.347  0.00  0.00    +0.000 HD
ATOM     12  H   NGI     0      -7.196   4.511 -15.073  0.00  0.00    +0.000 HD
ENDROOT
BRANCH   1  15
ATOM     13  O2  NGI     0      -8.091   5.083 -17.800  0.00  0.00    +0.000 OA
ATOM     14  C4  NGI     0      -9.254   5.238 -18.642  0.00  0.00    +0.000 C 
ATOM     15  C5  NGI     0      -7.793   6.411 -17.315  0.00  0.00    +0.000 C 
ATOM     16  C6  NGI     0      -8.020   7.336 -18.531  0.00  0.00    +0.000 C 
ATOM     17  C7  NGI     0      -9.003   6.547 -19.424  0.00  0.00    +0.000 C 
BRANCH  14  20
ATOM     18  N1  NGI     0      -8.497   3.053 -19.521  0.00  0.00    +0.000 N 
ATOM     19  O1  NGI     0     -10.258   4.058 -20.422  0.00  0.00    +0.000 OA
ATOM     20  C3  NGI     0      -9.373   4.074 -19.592  0.00  0.00    +0.000 C 
ATOM     21  HN1 NGI     0      -7.789   3.066 -18.858  0.00  0.00    +0.000 HD
BRANCH  18  23
ATOM     22  C1  NGI     0      -7.379   1.030 -20.317  0.00  0.00    +0.000 C 
ATOM     23  C2  NGI     0      -8.614   1.923 -20.445  0.00  0.00    +0.000 C 
ENDBRANCH  18  23
ENDBRANCH  14  20
BRANCH  16  24
ATOM     24  O3  NGI     0      -8.602   8.573 -18.117  0.00  0.00    +0.000 OA
ATOM     25  HO3 NGI     0      -8.557   9.272 -18.785  0.00  0.00    +0.000 HD
ENDBRANCH  16  24
BRANCH  17  26
ATOM     26  O4  NGI     0     -10.222   7.273 -19.590  0.00  0.00    +0.000 OA
ATOM     27  HO4 NGI     0     -10.122   8.232 -19.518  0.00  0.00    +0.000 HD
ENDBRANCH  17  26
ENDBRANCH   1  15
BRANCH   8  28
ATOM     28  N4  NGI     0      -2.327   5.939 -14.718  0.00  0.00    +0.000 NA
ATOM     29  HN4 NGI     0      -2.058   6.588 -14.050  0.00  0.00    +0.000 HD
ATOM     30 HN4A NGI     0      -1.664   5.549 -15.309  0.00  0.00    +0.000 HD
ENDBRANCH   8  28
BRANCH   4  31
ATOM     31  C12 NGI     0      -5.048   2.697 -12.279  0.00  0.00    +0.000 C 
BRANCH  31  32
ATOM     32  C13 NGI     0      -5.875   1.823 -11.333  0.00  0.00    +0.000 C 
BRANCH  32  33
ATOM     33  C14 NGI     0      -4.972   1.222 -10.287  0.00  0.00    +0.000 A 
ATOM     34  C15 NGI     0      -3.754   1.811 -10.005  0.00  0.00    +0.000 A 
ATOM     35  C16 NGI     0      -2.925   1.259  -9.045  0.00  0.00    +0.000 A 
ATOM     36  C17 NGI     0      -3.315   0.117  -8.369  0.00  0.00    +0.000 A 
ATOM     37  C21 NGI     0      -4.533  -0.472  -8.652  0.00  0.00    +0.000 A 
ATOM     38  C22 NGI     0      -5.364   0.083  -9.607  0.00  0.00    +0.000 A 
BRANCH  36  39
ATOM     39  C18 NGI     0      -2.412  -0.484  -7.324  0.00  0.00    +0.000 C 
BRANCH  39  40
ATOM     40  C19 NGI     0      -3.202  -1.486  -6.481  0.00  0.00    +0.000 C 
BRANCH  40  42
ATOM     41  O6  NGI     0      -1.088  -1.929  -5.537  0.00  0.00    +0.000 OA
ATOM     42  C20 NGI     0      -2.267  -2.196  -5.536  0.00  0.00    +0.000 C 
BRANCH  42  43
ATOM     43  O5  NGI     0      -2.744  -3.124  -4.692  0.00  0.00    +0.000 OA
ATOM     44  HO5 NGI     0      -3.670  -3.042  -4.427  0.00  0.00    +0.000 HD
ENDBRANCH  42  43
ENDBRANCH  40  42
ENDBRANCH  39  40
ENDBRANCH  36  39
ENDBRANCH  32  33
ENDBRANCH  31  32
ENDBRANCH   4  31
TORSDOF 13
