REMARK VINA RESULT:      -6.8      2.659      6.795
REMARK  Name = NEC.pdb
REMARK  7 active torsions:
REMARK  status: ('A' for Active; 'I' for Inactive)
REMARK    1  A    between atoms: C5'_1  and  C4'_6
REMARK    2  A    between atoms: N5'_3  and  C51_4
REMARK    3  A    between atoms: C51_4  and  C52_5
REMARK    4  A    between atoms: C3'_8  and  O3'_9
REMARK    5  A    between atoms: C2'_10  and  O2'_11
REMARK    6  A    between atoms: C1'_12  and  N9_13
REMARK    7  A    between atoms: C6_17  and  N6_18
REMARK                            x       y       z     vdW  Elec       q    Type
REMARK                         _______ _______ _______ _____ _____    ______ ____
ROOT
ATOM      1  C4' NEC     0      -2.223   4.005 -10.602  0.00  0.00    +0.000 C 
ATOM      2  O4' NEC     0      -3.087   3.177  -9.795  0.00  0.00    +0.000 OA
ATOM      3  C3' NEC     0      -0.874   3.244 -10.590  0.00  0.00    +0.000 C 
ATOM      4  C2' NEC     0      -0.831   2.685  -9.146  0.00  0.00    +0.000 C 
ATOM      5  C1' NEC     0      -2.302   2.704  -8.689  0.00  0.00    +0.000 C 
ENDROOT
BRANCH   5   6
ATOM      6  N9  NEC     0      -2.729   1.354  -8.315  0.00  0.00    +0.000 N 
ATOM      7  C8  NEC     0      -3.653   0.593  -8.965  0.00  0.00    +0.000 A 
ATOM      8  N7  NEC     0      -3.788  -0.554  -8.362  0.00  0.00    +0.000 NA
ATOM      9  C5  NEC     0      -2.960  -0.599  -7.290  0.00  0.00    +0.000 A 
ATOM     10  C6  NEC     0      -2.682  -1.553  -6.297  0.00  0.00    +0.000 C 
ATOM     11  N1  NEC     0      -1.782  -1.255  -5.368  0.00  0.00    +0.000 NA
ATOM     12  C2  NEC     0      -1.159  -0.092  -5.368  0.00  0.00    +0.000 C 
ATOM     13  N3  NEC     0      -1.388   0.832  -6.277  0.00  0.00    +0.000 N 
ATOM     14  C4  NEC     0      -2.268   0.621  -7.251  0.00  0.00    +0.000 A 
ATOM     15  H   NEC     0      -0.903   1.688  -6.236  0.00  0.00    +0.000 HD
BRANCH  10  16
ATOM     16  N6  NEC     0      -3.329  -2.777  -6.289  0.00  0.00    +0.000 NA
ATOM     17 HN61 NEC     0      -3.188  -3.405  -7.014  0.00  0.00    +0.000 HD
ATOM     18 HN62 NEC     0      -3.923  -3.006  -5.557  0.00  0.00    +0.000 HD
ENDBRANCH  10  16
ENDBRANCH   5   6
BRANCH   1  19
ATOM     19  C5' NEC     0      -2.757   4.118 -12.006  0.00  0.00    +0.000 C 
ATOM     20  O5' NEC     0      -3.746   3.495 -12.331  0.00  0.00    +0.000 OA
ATOM     21  N5' NEC     0      -2.136   4.912 -12.901  0.00  0.00    +0.000 N 
ATOM     22  HN5 NEC     0      -1.347   5.410 -12.641  0.00  0.00    +0.000 HD
BRANCH  21  23
ATOM     23  C51 NEC     0      -2.656   5.022 -14.266  0.00  0.00    +0.000 C 
ATOM     24  C52 NEC     0      -3.393   6.354 -14.425  0.00  0.00    +0.000 C 
ENDBRANCH  21  23
ENDBRANCH   1  19
BRANCH   3  25
ATOM     25  O3' NEC     0       0.221   4.132 -10.826  0.00  0.00    +0.000 OA
ATOM     26 HO3' NEC     0       0.896   3.625 -11.297  0.00  0.00    +0.000 HD
ENDBRANCH   3  25
BRANCH   4  27
ATOM     27  O2' NEC     0      -0.035   3.525  -8.307  0.00  0.00    +0.000 OA
ATOM     28 HO2' NEC     0      -0.612   4.237  -7.997  0.00  0.00    +0.000 HD
ENDBRANCH   4  27
TORSDOF 6
