REMARK VINA RESULT:      -6.5      3.785      5.851
REMARK  Name = NEC.pdb
REMARK  7 active torsions:
REMARK  status: ('A' for Active; 'I' for Inactive)
REMARK    1  A    between atoms: C5'_1  and  C4'_6
REMARK    2  A    between atoms: N5'_3  and  C51_4
REMARK    3  A    between atoms: C51_4  and  C52_5
REMARK    4  A    between atoms: C3'_8  and  O3'_9
REMARK    5  A    between atoms: C2'_10  and  O2'_11
REMARK    6  A    between atoms: C1'_12  and  N9_13
REMARK    7  A    between atoms: C6_17  and  N6_18
REMARK                            x       y       z     vdW  Elec       q    Type
REMARK                         _______ _______ _______ _____ _____    ______ ____
ROOT
ATOM      1  C4' NEC     0      -0.548   4.215 -10.900  0.00  0.00    +0.000 C 
ATOM      2  O4' NEC     0      -1.273   3.875 -12.101  0.00  0.00    +0.000 OA
ATOM      3  C3' NEC     0      -1.476   5.234 -10.191  0.00  0.00    +0.000 C 
ATOM      4  C2' NEC     0      -2.062   6.025 -11.388  0.00  0.00    +0.000 C 
ATOM      5  C1' NEC     0      -1.862   5.088 -12.594  0.00  0.00    +0.000 C 
ENDROOT
BRANCH   5   6
ATOM      6  N9  NEC     0      -3.153   4.797 -13.221  0.00  0.00    +0.000 N 
ATOM      7  C8  NEC     0      -4.021   3.812 -12.858  0.00  0.00    +0.000 A 
ATOM      8  N7  NEC     0      -5.071   3.837 -13.629  0.00  0.00    +0.000 NA
ATOM      9  C5  NEC     0      -4.942   4.839 -14.532  0.00  0.00    +0.000 A 
ATOM     10  C6  NEC     0      -5.735   5.329 -15.583  0.00  0.00    +0.000 C 
ATOM     11  N1  NEC     0      -5.286   6.361 -16.287  0.00  0.00    +0.000 NA
ATOM     12  C2  NEC     0      -4.121   6.919 -16.014  0.00  0.00    +0.000 C 
ATOM     13  N3  NEC     0      -3.344   6.493 -15.041  0.00  0.00    +0.000 N 
ATOM     14  C4  NEC     0      -3.714   5.469 -14.278  0.00  0.00    +0.000 A 
ATOM     15  H   NEC     0      -2.481   6.937 -14.876  0.00  0.00    +0.000 HD
BRANCH  10  16
ATOM     16  N6  NEC     0      -6.959   4.752 -15.875  0.00  0.00    +0.000 NA
ATOM     17 HN61 NEC     0      -7.018   3.798 -16.044  0.00  0.00    +0.000 HD
ATOM     18 HN62 NEC     0      -7.758   5.301 -15.911  0.00  0.00    +0.000 HD
ENDBRANCH  10  16
ENDBRANCH   5   6
BRANCH   1  19
ATOM     19  C5' NEC     0      -0.344   2.996 -10.039  0.00  0.00    +0.000 C 
ATOM     20  O5' NEC     0       0.766   2.522  -9.914  0.00  0.00    +0.000 OA
ATOM     21  N5' NEC     0      -1.393   2.433  -9.408  0.00  0.00    +0.000 N 
ATOM     22  HN5 NEC     0      -2.279   2.812  -9.508  0.00  0.00    +0.000 HD
BRANCH  21  23
ATOM     23  C51 NEC     0      -1.192   1.249  -8.569  0.00  0.00    +0.000 C 
ATOM     24  C52 NEC     0      -2.541   0.574  -8.310  0.00  0.00    +0.000 C 
ENDBRANCH  21  23
ENDBRANCH   1  19
BRANCH   3  25
ATOM     25  O3' NEC     0      -0.731   6.095  -9.327  0.00  0.00    +0.000 OA
ATOM     26 HO3' NEC     0      -0.286   6.741  -9.892  0.00  0.00    +0.000 HD
ENDBRANCH   3  25
BRANCH   4  27
ATOM     27  O2' NEC     0      -1.345   7.247 -11.579  0.00  0.00    +0.000 OA
ATOM     28 HO2' NEC     0      -1.649   7.858 -10.893  0.00  0.00    +0.000 HD
ENDBRANCH   4  27
TORSDOF 6
