REMARK VINA RESULT:      -9.0      1.840      3.668
REMARK  Name = NGI.pdb
REMARK  14 active torsions:
REMARK  status: ('A' for Active; 'I' for Inactive)
REMARK    1  A    between atoms: C1_1  and  C2_4
REMARK    2  A    between atoms: N1_2  and  C2_4
REMARK    3  A    between atoms: N2_5  and  C5_13
REMARK    4  A    between atoms: C3_7  and  C4_10
REMARK    5  A    between atoms: O3_9  and  C6_16
REMARK    6  A    between atoms: N4_11  and  C10_23
REMARK    7  A    between atoms: O4_12  and  C7_19
REMARK    8  A    between atoms: O5_15  and  C20_33
REMARK    9  A    between atoms: N6_17  and  C12_25
REMARK   10  A    between atoms: C12_25  and  C13_26
REMARK   11  A    between atoms: C13_26  and  C14_27
REMARK   12  A    between atoms: C17_30  and  C18_31
REMARK   13  A    between atoms: C18_31  and  C19_32
REMARK   14  A    between atoms: C19_32  and  C20_33
REMARK                            x       y       z     vdW  Elec       q    Type
REMARK                         _______ _______ _______ _____ _____    ______ ____
ROOT
ATOM      1  N2  NGI     0      -4.923   3.613 -12.564  0.00  0.00    +0.000 N 
ATOM      2  N3  NGI     0      -5.987   1.892 -11.744  0.00  0.00    +0.000 NA
ATOM      3  N5  NGI     0      -3.000   1.590  -9.624  0.00  0.00    +0.000 NA
ATOM      4  N6  NGI     0      -1.129   2.988  -9.656  0.00  0.00    +0.000 N 
ATOM      5  N7  NGI     0      -2.917   3.378 -11.101  0.00  0.00    +0.000 N 
ATOM      6  C8  NGI     0      -6.054   2.852 -12.620  0.00  0.00    +0.000 A 
ATOM      7  C9  NGI     0      -4.808   1.971 -11.079  0.00  0.00    +0.000 A 
ATOM      8  C10 NGI     0      -4.202   1.223 -10.053  0.00  0.00    +0.000 C 
ATOM      9  C11 NGI     0      -2.383   2.647 -10.137  0.00  0.00    +0.000 C 
ATOM     10  C23 NGI     0      -4.114   3.077 -11.594  0.00  0.00    +0.000 A 
ATOM     11  HN6 NGI     0      -0.663   3.757 -10.017  0.00  0.00    +0.000 HD
ATOM     12  H   NGI     0      -2.423   4.152 -11.457  0.00  0.00    +0.000 HD
ENDROOT
BRANCH   1  15
ATOM     13  O2  NGI     0      -5.644   4.959 -14.401  0.00  0.00    +0.000 OA
ATOM     14  C4  NGI     0      -5.031   5.775 -15.422  0.00  0.00    +0.000 C 
ATOM     15  C5  NGI     0      -4.626   4.784 -13.391  0.00  0.00    +0.000 C 
ATOM     16  C6  NGI     0      -3.317   4.565 -14.183  0.00  0.00    +0.000 C 
ATOM     17  C7  NGI     0      -3.590   5.232 -15.550  0.00  0.00    +0.000 C 
BRANCH  14  20
ATOM     18  N1  NGI     0      -5.077   5.501 -17.881  0.00  0.00    +0.000 N 
ATOM     19  O1  NGI     0      -6.979   5.610 -16.744  0.00  0.00    +0.000 OA
ATOM     20  C3  NGI     0      -5.766   5.623 -16.729  0.00  0.00    +0.000 C 
ATOM     21  HN1 NGI     0      -4.107   5.511 -17.869  0.00  0.00    +0.000 HD
BRANCH  18  23
ATOM     22  C1  NGI     0      -5.687   3.904 -19.629  0.00  0.00    +0.000 C 
ATOM     23  C2  NGI     0      -5.793   5.353 -19.150  0.00  0.00    +0.000 C 
ENDBRANCH  18  23
ENDBRANCH  14  20
BRANCH  16  24
ATOM     24  O3  NGI     0      -2.221   5.203 -13.525  0.00  0.00    +0.000 OA
ATOM     25  HO3 NGI     0      -1.575   5.595 -14.128  0.00  0.00    +0.000 HD
ENDBRANCH  16  24
BRANCH  17  26
ATOM     26  O4  NGI     0      -2.670   6.301 -15.778  0.00  0.00    +0.000 OA
ATOM     27  HO4 NGI     0      -2.651   6.617 -16.692  0.00  0.00    +0.000 HD
ENDBRANCH  17  26
ENDBRANCH   1  15
BRANCH   8  28
ATOM     28  N4  NGI     0      -4.845   0.129  -9.503  0.00  0.00    +0.000 NA
ATOM     29  HN4 NGI     0      -4.334  -0.549  -9.034  0.00  0.00    +0.000 HD
ATOM     30 HN4A NGI     0      -5.807   0.038  -9.587  0.00  0.00    +0.000 HD
ENDBRANCH   8  28
BRANCH   4  31
ATOM     31  C12 NGI     0      -0.508   2.187  -8.598  0.00  0.00    +0.000 C 
BRANCH  31  32
ATOM     32  C13 NGI     0      -1.325   2.320  -7.311  0.00  0.00    +0.000 C 
BRANCH  32  33
ATOM     33  C14 NGI     0      -1.702   0.949  -6.810  0.00  0.00    +0.000 A 
ATOM     34  C15 NGI     0      -0.800  -0.094  -6.909  0.00  0.00    +0.000 A 
ATOM     35  C16 NGI     0      -1.147  -1.352  -6.451  0.00  0.00    +0.000 A 
ATOM     36  C17 NGI     0      -2.394  -1.566  -5.894  0.00  0.00    +0.000 A 
ATOM     37  C21 NGI     0      -3.295  -0.522  -5.796  0.00  0.00    +0.000 A 
ATOM     38  C22 NGI     0      -2.947   0.737  -6.248  0.00  0.00    +0.000 A 
BRANCH  36  39
ATOM     39  C18 NGI     0      -2.771  -2.936  -5.395  0.00  0.00    +0.000 C 
BRANCH  39  40
ATOM     40  C19 NGI     0      -2.408  -3.057  -3.914  0.00  0.00    +0.000 C 
BRANCH  40  42
ATOM     41  O6  NGI     0      -0.877  -4.329  -2.651  0.00  0.00    +0.000 OA
ATOM     42  C20 NGI     0      -1.258  -4.019  -3.755  0.00  0.00    +0.000 C 
BRANCH  42  43
ATOM     43  O5  NGI     0      -0.659  -4.533  -4.842  0.00  0.00    +0.000 OA
ATOM     44  HO5 NGI     0       0.189  -4.146  -5.099  0.00  0.00    +0.000 HD
ENDBRANCH  42  43
ENDBRANCH  40  42
ENDBRANCH  39  40
ENDBRANCH  36  39
ENDBRANCH  32  33
ENDBRANCH  31  32
ENDBRANCH   4  31
TORSDOF 13
