REMARK VINA RESULT:      -7.7      0.951      2.059
REMARK  Name = NEC.pdb
REMARK  7 active torsions:
REMARK  status: ('A' for Active; 'I' for Inactive)
REMARK    1  A    between atoms: C5'_1  and  C4'_6
REMARK    2  A    between atoms: N5'_3  and  C51_4
REMARK    3  A    between atoms: C51_4  and  C52_5
REMARK    4  A    between atoms: C3'_8  and  O3'_9
REMARK    5  A    between atoms: C2'_10  and  O2'_11
REMARK    6  A    between atoms: C1'_12  and  N9_13
REMARK    7  A    between atoms: C6_17  and  N6_18
REMARK                            x       y       z     vdW  Elec       q    Type
REMARK                         _______ _______ _______ _____ _____    ______ ____
ROOT
ATOM      1  C4' NEC     0      -1.927  -0.171  -6.509  0.00  0.00    +0.000 C 
ATOM      2  O4' NEC     0      -2.318  -0.169  -7.899  0.00  0.00    +0.000 OA
ATOM      3  C3' NEC     0      -2.398   1.213  -5.996  0.00  0.00    +0.000 C 
ATOM      4  C2' NEC     0      -2.120   2.123  -7.219  0.00  0.00    +0.000 C 
ATOM      5  C1' NEC     0      -2.050   1.147  -8.408  0.00  0.00    +0.000 C 
ENDROOT
BRANCH   5   6
ATOM      6  N9  NEC     0      -3.053   1.507  -9.412  0.00  0.00    +0.000 N 
ATOM      7  C8  NEC     0      -4.290   0.953  -9.550  0.00  0.00    +0.000 A 
ATOM      8  N7  NEC     0      -4.919   1.511 -10.544  0.00  0.00    +0.000 NA
ATOM      9  C5  NEC     0      -4.127   2.457 -11.105  0.00  0.00    +0.000 A 
ATOM     10  C6  NEC     0      -4.267   3.354 -12.177  0.00  0.00    +0.000 C 
ATOM     11  N1  NEC     0      -3.256   4.167 -12.458  0.00  0.00    +0.000 NA
ATOM     12  C2  NEC     0      -2.140   4.139 -11.753  0.00  0.00    +0.000 C 
ATOM     13  N3  NEC     0      -1.964   3.315 -10.741  0.00  0.00    +0.000 N 
ATOM     14  C4  NEC     0      -2.924   2.469 -10.382  0.00  0.00    +0.000 A 
ATOM     15  H   NEC     0      -1.113   3.327 -10.246  0.00  0.00    +0.000 HD
BRANCH  10  16
ATOM     16  N6  NEC     0      -5.433   3.391 -12.921  0.00  0.00    +0.000 NA
ATOM     17 HN61 NEC     0      -5.406   3.219 -13.875  0.00  0.00    +0.000 HD
ATOM     18 HN62 NEC     0      -6.279   3.588 -12.488  0.00  0.00    +0.000 HD
ENDBRANCH  10  16
ENDBRANCH   5   6
BRANCH   1  19
ATOM     19  C5' NEC     0      -2.624  -1.279  -5.763  0.00  0.00    +0.000 C 
ATOM     20  O5' NEC     0      -3.829  -1.396  -5.839  0.00  0.00    +0.000 OA
ATOM     21  N5' NEC     0      -1.909  -2.141  -5.014  0.00  0.00    +0.000 N 
ATOM     22  HN5 NEC     0      -0.946  -2.048  -4.954  0.00  0.00    +0.000 HD
BRANCH  21  23
ATOM     23  C51 NEC     0      -2.587  -3.219  -4.290  0.00  0.00    +0.000 C 
ATOM     24  C52 NEC     0      -1.789  -3.569  -3.033  0.00  0.00    +0.000 C 
ENDBRANCH  21  23
ENDBRANCH   1  19
BRANCH   3  25
ATOM     25  O3' NEC     0      -1.632   1.630  -4.864  0.00  0.00    +0.000 OA
ATOM     26 HO3' NEC     0      -1.785   0.978  -4.166  0.00  0.00    +0.000 HD
ENDBRANCH   3  25
BRANCH   4  27
ATOM     27  O2' NEC     0      -0.876   2.808  -7.059  0.00  0.00    +0.000 OA
ATOM     28 HO2' NEC     0      -1.050   3.575  -6.496  0.00  0.00    +0.000 HD
ENDBRANCH   4  27
TORSDOF 6
