REMARK VINA RESULT:      -7.1      1.728      2.818
REMARK  Name = NEC.pdb
REMARK  7 active torsions:
REMARK  status: ('A' for Active; 'I' for Inactive)
REMARK    1  A    between atoms: C5'_1  and  C4'_6
REMARK    2  A    between atoms: N5'_3  and  C51_4
REMARK    3  A    between atoms: C51_4  and  C52_5
REMARK    4  A    between atoms: C3'_8  and  O3'_9
REMARK    5  A    between atoms: C2'_10  and  O2'_11
REMARK    6  A    between atoms: C1'_12  and  N9_13
REMARK    7  A    between atoms: C6_17  and  N6_18
REMARK                            x       y       z     vdW  Elec       q    Type
REMARK                         _______ _______ _______ _____ _____    ______ ____
ROOT
ATOM      1  C4' NEC     0      -1.992   0.667  -7.644  0.00  0.00    +0.000 C 
ATOM      2  O4' NEC     0      -2.236   0.820  -9.058  0.00  0.00    +0.000 OA
ATOM      3  C3' NEC     0      -2.448   2.022  -7.046  0.00  0.00    +0.000 C 
ATOM      4  C2' NEC     0      -2.000   3.024  -8.140  0.00  0.00    +0.000 C 
ATOM      5  C1' NEC     0      -1.853   2.160  -9.407  0.00  0.00    +0.000 C 
ENDROOT
BRANCH   5   6
ATOM      6  N9  NEC     0      -2.728   2.670 -10.464  0.00  0.00    +0.000 N 
ATOM      7  C8  NEC     0      -3.993   2.245 -10.738  0.00  0.00    +0.000 A 
ATOM      8  N7  NEC     0      -4.479   2.914 -11.744  0.00  0.00    +0.000 NA
ATOM      9  C5  NEC     0      -3.559   3.809 -12.177  0.00  0.00    +0.000 A 
ATOM     10  C6  NEC     0      -3.523   4.774 -13.197  0.00  0.00    +0.000 C 
ATOM     11  N1  NEC     0      -2.422   5.501 -13.342  0.00  0.00    +0.000 NA
ATOM     12  C2  NEC     0      -1.379   5.328 -12.552  0.00  0.00    +0.000 C 
ATOM     13  N3  NEC     0      -1.368   4.436 -11.583  0.00  0.00    +0.000 N 
ATOM     14  C4  NEC     0      -2.428   3.667 -11.358  0.00  0.00    +0.000 A 
ATOM     15  H   NEC     0      -0.566   4.339 -11.019  0.00  0.00    +0.000 HD
BRANCH  10  16
ATOM     16  N6  NEC     0      -4.611   4.963 -14.031  0.00  0.00    +0.000 NA
ATOM     17 HN61 NEC     0      -4.574   4.664 -14.953  0.00  0.00    +0.000 HD
ATOM     18 HN62 NEC     0      -5.412   5.394 -13.693  0.00  0.00    +0.000 HD
ENDBRANCH  10  16
ENDBRANCH   5   6
BRANCH   1  19
ATOM     19  C5' NEC     0      -2.816  -0.464  -7.083  0.00  0.00    +0.000 C 
ATOM     20  O5' NEC     0      -3.857  -0.779  -7.619  0.00  0.00    +0.000 OA
ATOM     21  N5' NEC     0      -2.394  -1.125  -5.987  0.00  0.00    +0.000 N 
ATOM     22  HN5 NEC     0      -1.562  -0.873  -5.559  0.00  0.00    +0.000 HD
BRANCH  21  23
ATOM     23  C51 NEC     0      -3.195  -2.225  -5.443  0.00  0.00    +0.000 C 
ATOM     24  C52 NEC     0      -2.352  -3.025  -4.448  0.00  0.00    +0.000 C 
ENDBRANCH  21  23
ENDBRANCH   1  19
BRANCH   3  25
ATOM     25  O3' NEC     0      -1.784   2.288  -5.808  0.00  0.00    +0.000 OA
ATOM     26 HO3' NEC     0      -2.474   2.388  -5.137  0.00  0.00    +0.000 HD
ENDBRANCH   3  25
BRANCH   4  27
ATOM     27  O2' NEC     0      -0.748   3.619  -7.791  0.00  0.00    +0.000 OA
ATOM     28 HO2' NEC     0      -0.895   4.574  -7.750  0.00  0.00    +0.000 HD
ENDBRANCH   4  27
TORSDOF 6
