MODEL 1
REMARK VINA RESULT:     -10.3      0.000      0.000
REMARK  Name = 118734345.pdb
REMARK  7 active torsions:
REMARK  status: ('A' for Active; 'I' for Inactive)
REMARK    1  A    between atoms: N_6  and  C_16
REMARK    2  A    between atoms: N_7  and  C_25
REMARK    3  A    between atoms: N_8  and  C_29
REMARK    4  A    between atoms: N_9  and  C_32
REMARK    5  A    between atoms: N_12  and  C_28
REMARK    6  A    between atoms: C_18  and  C_23
REMARK    7  A    between atoms: C_25  and  C_28
REMARK                            x       y       z     vdW  Elec       q    Type
REMARK                         _______ _______ _______ _____ _____    ______ ____
ROOT
ATOM      1  N   LIG     1     -29.428   8.265 -23.755  0.00  0.00    +0.000 N 
ATOM      2  N   LIG     1     -28.878   6.382 -24.811  0.00  0.00    +0.000 NA
ATOM      3  N   LIG     1     -30.018   7.365 -21.578  0.00  0.00    +0.000 NA
ATOM      4  N   LIG     1     -30.484   6.134 -19.672  0.00  0.00    +0.000 NA
ATOM      5  N   LIG     1     -29.760   4.939 -21.522  0.00  0.00    +0.000 NA
ATOM      6  N   LIG     1     -29.014   3.682 -23.417  0.00  0.00    +0.000 NA
ATOM      7  C   LIG     1     -29.602   7.259 -22.848  0.00  0.00    +0.000 A 
ATOM      8  C   LIG     1     -28.992   7.689 -24.918  0.00  0.00    +0.000 A 
ATOM      9  C   LIG     1     -29.255   6.099 -23.523  0.00  0.00    +0.000 A 
ATOM     10  C   LIG     1     -30.066   6.148 -20.992  0.00  0.00    +0.000 A 
ATOM     11  C   LIG     1     -29.345   4.907 -22.812  0.00  0.00    +0.000 A 
ENDROOT
BRANCH   1  16
ATOM     12  O   LIG     1     -30.444  10.303 -24.606  0.00  0.00    +0.000 OA
ATOM     13  O   LIG     1     -27.790  10.529 -22.195  0.00  0.00    +0.000 OA
ATOM     14  O   LIG     1     -29.466  12.590 -22.759  0.00  0.00    +0.000 OA
ATOM     15  C   LIG     1     -28.385  10.555 -23.477  0.00  0.00    +0.000 C 
ATOM     16  C   LIG     1     -29.670   9.739 -23.529  0.00  0.00    +0.000 C 
ATOM     17  C   LIG     1     -28.869  11.936 -23.877  0.00  0.00    +0.000 C 
ATOM     18  C   LIG     1     -29.950  11.619 -24.895  0.00  0.00    +0.000 C 
BRANCH  18  21
ATOM     19  O   LIG     1     -29.179  10.503 -26.855  0.00  0.00    +0.000 OA
ATOM     20  N   LIG     1     -29.242  12.830 -26.833  0.00  0.00    +0.000 NA
ATOM     21  C   LIG     1     -29.424  11.567 -26.294  0.00  0.00    +0.000 C 
BRANCH  20  22
ATOM     22  C   LIG     1     -28.723  13.055 -28.161  0.00  0.00    +0.000 C 
ATOM     23  C   LIG     1     -29.274  14.332 -28.763  0.00  0.00    +0.000 C 
ENDBRANCH  20  22
ENDBRANCH  18  21
ENDBRANCH   1  16
BRANCH   4  24
ATOM     24  C   LIG     1     -30.853   7.320 -18.935  0.00  0.00    +0.000 C 
BRANCH  24  25
ATOM     25  C   LIG     1     -31.104   6.958 -17.476  0.00  0.00    +0.000 C 
BRANCH  25  26
ATOM     26  N   LIG     1     -30.985   5.513 -17.283  0.00  0.00    +0.000 NA
ATOM     27  N   LIG     1     -31.267   3.037 -15.888  0.00  0.00    +0.000 N 
ATOM     28  C   LIG     1     -30.141   5.217 -16.120  0.00  0.00    +0.000 C 
ATOM     29  C   LIG     1     -32.309   4.907 -17.108  0.00  0.00    +0.000 C 
ATOM     30  C   LIG     1     -29.962   3.707 -15.941  0.00  0.00    +0.000 C 
ATOM     31  C   LIG     1     -32.204   3.387 -16.961  0.00  0.00    +0.000 C 
BRANCH  27  33
ATOM     32 CL   LIG     1     -31.544  -2.307 -13.379  0.00  0.00    +0.000 Cl
ATOM     33  C   LIG     1     -31.332   1.772 -15.294  0.00  0.00    +0.000 A 
ATOM     34  C   LIG     1     -31.801   0.681 -16.026  0.00  0.00    +0.000 A 
ATOM     35  C   LIG     1     -30.930   1.601 -13.970  0.00  0.00    +0.000 A 
ATOM     36  C   LIG     1     -31.866  -0.581 -15.435  0.00  0.00    +0.000 A 
ATOM     37  C   LIG     1     -30.995   0.340 -13.378  0.00  0.00    +0.000 A 
ATOM     38  C   LIG     1     -31.464  -0.751 -14.110  0.00  0.00    +0.000 A 
ENDBRANCH  27  33
ENDBRANCH  25  26
ENDBRANCH  24  25
ENDBRANCH   4  24
TORSDOF 7
ENDMDL
MODEL 2
REMARK VINA RESULT:      -9.6      1.315      1.630
REMARK  Name = 118734345.pdb
REMARK  7 active torsions:
REMARK  status: ('A' for Active; 'I' for Inactive)
REMARK    1  A    between atoms: N_6  and  C_16
REMARK    2  A    between atoms: N_7  and  C_25
REMARK    3  A    between atoms: N_8  and  C_29
REMARK    4  A    between atoms: N_9  and  C_32
REMARK    5  A    between atoms: N_12  and  C_28
REMARK    6  A    between atoms: C_18  and  C_23
REMARK    7  A    between atoms: C_25  and  C_28
REMARK                            x       y       z     vdW  Elec       q    Type
REMARK                         _______ _______ _______ _____ _____    ______ ____
ROOT
ATOM      1  N   LIG     1     -29.513   8.304 -23.367  0.00  0.00    +0.000 N 
ATOM      2  N   LIG     1     -28.989   6.404 -24.407  0.00  0.00    +0.000 NA
ATOM      3  N   LIG     1     -30.109   7.431 -21.180  0.00  0.00    +0.000 NA
ATOM      4  N   LIG     1     -30.586   6.222 -19.262  0.00  0.00    +0.000 NA
ATOM      5  N   LIG     1     -29.881   5.002 -21.103  0.00  0.00    +0.000 NA
ATOM      6  N   LIG     1     -29.156   3.720 -22.989  0.00  0.00    +0.000 NA
ATOM      7  C   LIG     1     -29.697   7.308 -22.451  0.00  0.00    +0.000 A 
ATOM      8  C   LIG     1     -29.087   7.712 -24.526  0.00  0.00    +0.000 A 
ATOM      9  C   LIG     1     -29.367   6.138 -23.116  0.00  0.00    +0.000 A 
ATOM     10  C   LIG     1     -30.170   6.220 -20.584  0.00  0.00    +0.000 A 
ATOM     11  C   LIG     1     -29.470   4.954 -22.394  0.00  0.00    +0.000 A 
ENDROOT
BRANCH   1  16
ATOM     12  O   LIG     1     -30.527  10.342 -24.221  0.00  0.00    +0.000 OA
ATOM     13  O   LIG     1     -27.820  10.570 -21.869  0.00  0.00    +0.000 OA
ATOM     14  O   LIG     1     -29.488  12.640 -22.422  0.00  0.00    +0.000 OA
ATOM     15  C   LIG     1     -28.442  10.587 -23.139  0.00  0.00    +0.000 C 
ATOM     16  C   LIG     1     -29.735   9.783 -23.153  0.00  0.00    +0.000 C 
ATOM     17  C   LIG     1     -28.922  11.968 -23.545  0.00  0.00    +0.000 C 
ATOM     18  C   LIG     1     -30.027  11.649 -24.536  0.00  0.00    +0.000 C 
BRANCH  18  21
ATOM     19  O   LIG     1     -28.709  10.736 -26.299  0.00  0.00    +0.000 OA
ATOM     20  N   LIG     1     -30.090  12.555 -26.748  0.00  0.00    +0.000 NA
ATOM     21  C   LIG     1     -29.532  11.576 -25.945  0.00  0.00    +0.000 C 
BRANCH  20  22
ATOM     22  C   LIG     1     -29.760  12.714 -28.145  0.00  0.00    +0.000 C 
ATOM     23  C   LIG     1     -28.499  13.535 -28.327  0.00  0.00    +0.000 C 
ENDBRANCH  20  22
ENDBRANCH  18  21
ENDBRANCH   1  16
BRANCH   4  24
ATOM     24  C   LIG     1     -30.938   7.419 -18.535  0.00  0.00    +0.000 C 
BRANCH  24  25
ATOM     25  C   LIG     1     -30.763   7.180 -17.041  0.00  0.00    +0.000 C 
BRANCH  25  26
ATOM     26  N   LIG     1     -31.096   5.796 -16.705  0.00  0.00    +0.000 NA
ATOM     27  N   LIG     1     -31.282   2.980 -17.143  0.00  0.00    +0.000 N 
ATOM     28  C   LIG     1     -32.073   5.256 -17.658  0.00  0.00    +0.000 C 
ATOM     29  C   LIG     1     -29.888   4.963 -16.702  0.00  0.00    +0.000 C 
ATOM     30  C   LIG     1     -32.473   3.826 -17.284  0.00  0.00    +0.000 C 
ATOM     31  C   LIG     1     -30.214   3.523 -16.298  0.00  0.00    +0.000 C 
BRANCH  27  33
ATOM     32 CL   LIG     1     -31.969  -2.872 -17.602  0.00  0.00    +0.000 Cl
ATOM     33  C   LIG     1     -31.444   1.594 -17.252  0.00  0.00    +0.000 A 
ATOM     34  C   LIG     1     -32.559   1.072 -17.908  0.00  0.00    +0.000 A 
ATOM     35  C   LIG     1     -30.492   0.735 -16.703  0.00  0.00    +0.000 A 
ATOM     36  C   LIG     1     -32.721  -0.309 -18.017  0.00  0.00    +0.000 A 
ATOM     37  C   LIG     1     -30.655  -0.646 -16.811  0.00  0.00    +0.000 A 
ATOM     38  C   LIG     1     -31.769  -1.168 -17.468  0.00  0.00    +0.000 A 
ENDBRANCH  27  33
ENDBRANCH  25  26
ENDBRANCH  24  25
ENDBRANCH   4  24
TORSDOF 7
ENDMDL
MODEL 3
REMARK VINA RESULT:      -8.5      2.037      3.359
REMARK  Name = 118734345.pdb
REMARK  7 active torsions:
REMARK  status: ('A' for Active; 'I' for Inactive)
REMARK    1  A    between atoms: N_6  and  C_16
REMARK    2  A    between atoms: N_7  and  C_25
REMARK    3  A    between atoms: N_8  and  C_29
REMARK    4  A    between atoms: N_9  and  C_32
REMARK    5  A    between atoms: N_12  and  C_28
REMARK    6  A    between atoms: C_18  and  C_23
REMARK    7  A    between atoms: C_25  and  C_28
REMARK                            x       y       z     vdW  Elec       q    Type
REMARK                         _______ _______ _______ _____ _____    ______ ____
ROOT
ATOM      1  N   LIG     1     -29.146   8.019 -23.440  0.00  0.00    +0.000 N 
ATOM      2  N   LIG     1     -29.071   6.171 -24.684  0.00  0.00    +0.000 NA
ATOM      3  N   LIG     1     -29.912   7.074 -21.337  0.00  0.00    +0.000 NA
ATOM      4  N   LIG     1     -30.639   5.806 -19.540  0.00  0.00    +0.000 NA
ATOM      5  N   LIG     1     -30.239   4.661 -21.516  0.00  0.00    +0.000 NA
ATOM      6  N   LIG     1     -29.833   3.457 -23.543  0.00  0.00    +0.000 NA
ATOM      7  C   LIG     1     -29.546   6.998 -22.625  0.00  0.00    +0.000 A 
ATOM      8  C   LIG     1     -28.872   7.473 -24.665  0.00  0.00    +0.000 A 
ATOM      9  C   LIG     1     -29.492   5.860 -23.416  0.00  0.00    +0.000 A 
ATOM     10  C   LIG     1     -30.242   5.851 -20.866  0.00  0.00    +0.000 A 
ATOM     11  C   LIG     1     -29.856   4.660 -22.816  0.00  0.00    +0.000 A 
ENDROOT
BRANCH   1  16
ATOM     12  O   LIG     1     -28.675   9.627 -21.679  0.00  0.00    +0.000 OA
ATOM     13  O   LIG     1     -30.514  10.677 -24.581  0.00  0.00    +0.000 OA
ATOM     14  O   LIG     1     -29.336  12.414 -22.858  0.00  0.00    +0.000 OA
ATOM     15  C   LIG     1     -30.328  10.249 -23.247  0.00  0.00    +0.000 C 
ATOM     16  C   LIG     1     -29.027   9.478 -23.069  0.00  0.00    +0.000 C 
ATOM     17  C   LIG     1     -30.151  11.400 -22.275  0.00  0.00    +0.000 C 
ATOM     18  C   LIG     1     -29.386  10.749 -21.136  0.00  0.00    +0.000 C 
BRANCH  18  21
ATOM     19  O   LIG     1     -29.849   9.695 -19.049  0.00  0.00    +0.000 OA
ATOM     20  N   LIG     1     -31.626  10.308 -20.422  0.00  0.00    +0.000 NA
ATOM     21  C   LIG     1     -30.289  10.197 -20.079  0.00  0.00    +0.000 C 
BRANCH  20  22
ATOM     22  C   LIG     1     -32.699   9.830 -19.582  0.00  0.00    +0.000 C 
ATOM     23  C   LIG     1     -34.017  10.486 -19.940  0.00  0.00    +0.000 C 
ENDBRANCH  20  22
ENDBRANCH  18  21
ENDBRANCH   1  16
BRANCH   4  24
ATOM     24  C   LIG     1     -30.707   6.967 -18.683  0.00  0.00    +0.000 C 
BRANCH  24  25
ATOM     25  C   LIG     1     -30.752   6.525 -17.226  0.00  0.00    +0.000 C 
BRANCH  25  26
ATOM     26  N   LIG     1     -30.775   5.066 -17.137  0.00  0.00    +0.000 NA
ATOM     27  N   LIG     1     -31.225   2.537 -15.890  0.00  0.00    +0.000 N 
ATOM     28  C   LIG     1     -29.891   4.601 -16.062  0.00  0.00    +0.000 C 
ATOM     29  C   LIG     1     -32.142   4.587 -16.903  0.00  0.00    +0.000 C 
ATOM     30  C   LIG     1     -29.863   3.072 -15.996  0.00  0.00    +0.000 C 
ATOM     31  C   LIG     1     -32.190   3.057 -16.864  0.00  0.00    +0.000 C 
BRANCH  27  33
ATOM     32 CL   LIG     1     -31.902  -2.920 -13.723  0.00  0.00    +0.000 Cl
ATOM     33  C   LIG     1     -31.385   1.245 -15.377  0.00  0.00    +0.000 A 
ATOM     34  C   LIG     1     -31.736   0.195 -16.226  0.00  0.00    +0.000 A 
ATOM     35  C   LIG     1     -31.195   1.006 -14.015  0.00  0.00    +0.000 A 
ATOM     36  C   LIG     1     -31.895  -1.093 -15.715  0.00  0.00    +0.000 A 
ATOM     37  C   LIG     1     -31.355  -0.282 -13.504  0.00  0.00    +0.000 A 
ATOM     38  C   LIG     1     -31.705  -1.331 -14.354  0.00  0.00    +0.000 A 
ENDBRANCH  27  33
ENDBRANCH  25  26
ENDBRANCH  24  25
ENDBRANCH   4  24
TORSDOF 7
ENDMDL
MODEL 4
REMARK VINA RESULT:      -7.1      5.313     12.510
REMARK  Name = 118734345.pdb
REMARK  7 active torsions:
REMARK  status: ('A' for Active; 'I' for Inactive)
REMARK    1  A    between atoms: N_6  and  C_16
REMARK    2  A    between atoms: N_7  and  C_25
REMARK    3  A    between atoms: N_8  and  C_29
REMARK    4  A    between atoms: N_9  and  C_32
REMARK    5  A    between atoms: N_12  and  C_28
REMARK    6  A    between atoms: C_18  and  C_23
REMARK    7  A    between atoms: C_25  and  C_28
REMARK                            x       y       z     vdW  Elec       q    Type
REMARK                         _______ _______ _______ _____ _____    ______ ____
ROOT
ATOM      1  N   LIG     1     -31.087   4.548 -18.266  0.00  0.00    +0.000 N 
ATOM      2  N   LIG     1     -31.912   6.287 -17.143  0.00  0.00    +0.000 NA
ATOM      3  N   LIG     1     -30.189   5.696 -20.209  0.00  0.00    +0.000 NA
ATOM      4  N   LIG     1     -29.476   7.139 -21.875  0.00  0.00    +0.000 NA
ATOM      5  N   LIG     1     -30.568   8.103 -20.071  0.00  0.00    +0.000 NA
ATOM      6  N   LIG     1     -31.692   9.122 -18.221  0.00  0.00    +0.000 NA
ATOM      7  C   LIG     1     -30.818   5.650 -19.026  0.00  0.00    +0.000 A 
ATOM      8  C   LIG     1     -31.744   4.980 -17.146  0.00  0.00    +0.000 A 
ATOM      9  C   LIG     1     -31.338   6.719 -18.312  0.00  0.00    +0.000 A 
ATOM     10  C   LIG     1     -30.110   6.969 -20.655  0.00  0.00    +0.000 A 
ATOM     11  C   LIG     1     -31.195   7.982 -18.876  0.00  0.00    +0.000 A 
ENDROOT
BRANCH   1  16
ATOM     12  O   LIG     1     -31.828   2.233 -18.282  0.00  0.00    +0.000 OA
ATOM     13  O   LIG     1     -28.311   2.960 -18.371  0.00  0.00    +0.000 OA
ATOM     14  O   LIG     1     -29.346   0.539 -19.035  0.00  0.00    +0.000 OA
ATOM     15  C   LIG     1     -29.547   2.596 -17.789  0.00  0.00    +0.000 C 
ATOM     16  C   LIG     1     -30.732   3.117 -18.592  0.00  0.00    +0.000 C 
ATOM     17  C   LIG     1     -29.789   1.098 -17.801  0.00  0.00    +0.000 C 
ATOM     18  C   LIG     1     -31.303   1.013 -17.738  0.00  0.00    +0.000 C 
BRANCH  18  21
ATOM     19  O   LIG     1     -31.774   1.891 -15.572  0.00  0.00    +0.000 OA
ATOM     20  N   LIG     1     -32.302  -0.329 -16.029  0.00  0.00    +0.000 NA
ATOM     21  C   LIG     1     -31.816   0.930 -16.335  0.00  0.00    +0.000 C 
BRANCH  20  22
ATOM     22  C   LIG     1     -32.834  -0.677 -14.732  0.00  0.00    +0.000 C 
ATOM     23  C   LIG     1     -33.780  -1.858 -14.819  0.00  0.00    +0.000 C 
ENDBRANCH  20  22
ENDBRANCH  18  21
ENDBRANCH   1  16
BRANCH   4  24
ATOM     24  C   LIG     1     -28.922   6.053 -22.649  0.00  0.00    +0.000 C 
BRANCH  24  25
ATOM     25  C   LIG     1     -29.234   6.266 -24.125  0.00  0.00    +0.000 C 
BRANCH  25  26
ATOM     26  N   LIG     1     -29.021   7.665 -24.493  0.00  0.00    +0.000 NA
ATOM     27  N   LIG     1     -29.191   9.977 -26.162  0.00  0.00    +0.000 N 
ATOM     28  C   LIG     1     -28.215   7.758 -25.716  0.00  0.00    +0.000 C 
ATOM     29  C   LIG     1     -30.305   8.347 -24.688  0.00  0.00    +0.000 C 
ATOM     30  C   LIG     1     -27.936   9.219 -26.080  0.00  0.00    +0.000 C 
ATOM     31  C   LIG     1     -30.098   9.827 -25.020  0.00  0.00    +0.000 C 
BRANCH  27  33
ATOM     32 CL   LIG     1     -29.200  14.999 -29.278  0.00  0.00    +0.000 Cl
ATOM     33  C   LIG     1     -29.193  11.166 -26.899  0.00  0.00    +0.000 A 
ATOM     34  C   LIG     1     -30.343  11.954 -26.950  0.00  0.00    +0.000 A 
ATOM     35  C   LIG     1     -28.045  11.563 -27.585  0.00  0.00    +0.000 A 
ATOM     36  C   LIG     1     -30.346  13.139 -27.685  0.00  0.00    +0.000 A 
ATOM     37  C   LIG     1     -28.048  12.749 -28.320  0.00  0.00    +0.000 A 
ATOM     38  C   LIG     1     -29.198  13.536 -28.371  0.00  0.00    +0.000 A 
ENDBRANCH  27  33
ENDBRANCH  25  26
ENDBRANCH  24  25
ENDBRANCH   4  24
TORSDOF 7
ENDMDL
MODEL 5
REMARK VINA RESULT:      -7.0      5.674     12.625
REMARK  Name = 118734345.pdb
REMARK  7 active torsions:
REMARK  status: ('A' for Active; 'I' for Inactive)
REMARK    1  A    between atoms: N_6  and  C_16
REMARK    2  A    between atoms: N_7  and  C_25
REMARK    3  A    between atoms: N_8  and  C_29
REMARK    4  A    between atoms: N_9  and  C_32
REMARK    5  A    between atoms: N_12  and  C_28
REMARK    6  A    between atoms: C_18  and  C_23
REMARK    7  A    between atoms: C_25  and  C_28
REMARK                            x       y       z     vdW  Elec       q    Type
REMARK                         _______ _______ _______ _____ _____    ______ ____
ROOT
ATOM      1  N   LIG     1     -31.368   2.274 -17.140  0.00  0.00    +0.000 N 
ATOM      2  N   LIG     1     -31.805   3.855 -15.632  0.00  0.00    +0.000 NA
ATOM      3  N   LIG     1     -30.746   3.665 -19.033  0.00  0.00    +0.000 NA
ATOM      4  N   LIG     1     -30.228   5.313 -20.576  0.00  0.00    +0.000 NA
ATOM      5  N   LIG     1     -30.870   6.036 -18.469  0.00  0.00    +0.000 NA
ATOM      6  N   LIG     1     -31.531   6.809 -16.302  0.00  0.00    +0.000 NA
ATOM      7  C   LIG     1     -31.146   3.467 -17.768  0.00  0.00    +0.000 A 
ATOM      8  C   LIG     1     -31.762   2.559 -15.860  0.00  0.00    +0.000 A 
ATOM      9  C   LIG     1     -31.422   4.435 -16.815  0.00  0.00    +0.000 A 
ATOM     10  C   LIG     1     -30.636   4.986 -19.293  0.00  0.00    +0.000 A 
ATOM     11  C   LIG     1     -31.271   5.762 -17.204  0.00  0.00    +0.000 A 
ENDROOT
BRANCH   1  16
ATOM     12  O   LIG     1     -32.263   0.018 -17.281  0.00  0.00    +0.000 OA
ATOM     13  O   LIG     1     -28.832   0.614 -18.165  0.00  0.00    +0.000 OA
ATOM     14  O   LIG     1     -30.179  -1.638 -18.866  0.00  0.00    +0.000 OA
ATOM     15  C   LIG     1     -29.909   0.215 -17.343  0.00  0.00    +0.000 C 
ATOM     16  C   LIG     1     -31.214   0.896 -17.738  0.00  0.00    +0.000 C 
ATOM     17  C   LIG     1     -30.259  -1.253 -17.495  0.00  0.00    +0.000 C 
ATOM     18  C   LIG     1     -31.713  -1.289 -17.060  0.00  0.00    +0.000 C 
BRANCH  18  21
ATOM     19  O   LIG     1     -31.169  -2.384 -15.014  0.00  0.00    +0.000 OA
ATOM     20  N   LIG     1     -32.880  -0.807 -15.028  0.00  0.00    +0.000 NA
ATOM     21  C   LIG     1     -31.869  -1.562 -15.597  0.00  0.00    +0.000 C 
BRANCH  20  22
ATOM     22  C   LIG     1     -33.247  -0.900 -13.634  0.00  0.00    +0.000 C 
ATOM     23  C   LIG     1     -34.471  -1.772 -13.440  0.00  0.00    +0.000 C 
ENDBRANCH  20  22
ENDBRANCH  18  21
ENDBRANCH   1  16
BRANCH   4  24
ATOM     24  C   LIG     1     -29.930   4.335 -21.596  0.00  0.00    +0.000 C 
BRANCH  24  25
ATOM     25  C   LIG     1     -28.873   4.889 -22.543  0.00  0.00    +0.000 C 
BRANCH  25  26
ATOM     26  N   LIG     1     -29.391   6.056 -23.255  0.00  0.00    +0.000 NA
ATOM     27  N   LIG     1     -29.227   8.542 -24.652  0.00  0.00    +0.000 N 
ATOM     28  C   LIG     1     -29.051   7.290 -22.537  0.00  0.00    +0.000 C 
ATOM     29  C   LIG     1     -28.851   6.108 -24.619  0.00  0.00    +0.000 C 
ATOM     30  C   LIG     1     -29.637   8.516 -23.242  0.00  0.00    +0.000 C 
ATOM     31  C   LIG     1     -29.428   7.294 -25.395  0.00  0.00    +0.000 C 
BRANCH  27  33
ATOM     32 CL   LIG     1     -29.421  13.717 -27.500  0.00  0.00    +0.000 Cl
ATOM     33  C   LIG     1     -29.273   9.767 -25.327  0.00  0.00    +0.000 A 
ATOM     34  C   LIG     1     -28.682   9.895 -26.583  0.00  0.00    +0.000 A 
ATOM     35  C   LIG     1     -29.910  10.862 -24.741  0.00  0.00    +0.000 A 
ATOM     36  C   LIG     1     -28.728  11.116 -27.256  0.00  0.00    +0.000 A 
ATOM     37  C   LIG     1     -29.956  12.083 -25.414  0.00  0.00    +0.000 A 
ATOM     38  C   LIG     1     -29.364  12.210 -26.670  0.00  0.00    +0.000 A 
ENDBRANCH  27  33
ENDBRANCH  25  26
ENDBRANCH  24  25
ENDBRANCH   4  24
TORSDOF 7
ENDMDL
MODEL 6
REMARK VINA RESULT:      -6.8     19.726     22.882
REMARK  Name = 118734345.pdb
REMARK  7 active torsions:
REMARK  status: ('A' for Active; 'I' for Inactive)
REMARK    1  A    between atoms: N_6  and  C_16
REMARK    2  A    between atoms: N_7  and  C_25
REMARK    3  A    between atoms: N_8  and  C_29
REMARK    4  A    between atoms: N_9  and  C_32
REMARK    5  A    between atoms: N_12  and  C_28
REMARK    6  A    between atoms: C_18  and  C_23
REMARK    7  A    between atoms: C_25  and  C_28
REMARK                            x       y       z     vdW  Elec       q    Type
REMARK                         _______ _______ _______ _____ _____    ______ ____
ROOT
ATOM      1  N   LIG     1     -32.778   7.133 -40.598  0.00  0.00    +0.000 N 
ATOM      2  N   LIG     1     -31.352   5.691 -41.522  0.00  0.00    +0.000 NA
ATOM      3  N   LIG     1     -31.395   9.130 -40.575  0.00  0.00    +0.000 NA
ATOM      4  N   LIG     1     -29.783  10.787 -40.729  0.00  0.00    +0.000 NA
ATOM      5  N   LIG     1     -29.188   8.691 -41.520  0.00  0.00    +0.000 NA
ATOM      6  N   LIG     1     -28.548   6.536 -42.342  0.00  0.00    +0.000 NA
ATOM      7  C   LIG     1     -31.631   7.836 -40.837  0.00  0.00    +0.000 A 
ATOM      8  C   LIG     1     -32.562   5.851 -41.026  0.00  0.00    +0.000 A 
ATOM      9  C   LIG     1     -30.760   6.924 -41.410  0.00  0.00    +0.000 A 
ATOM     10  C   LIG     1     -30.142   9.467 -40.952  0.00  0.00    +0.000 A 
ATOM     11  C   LIG     1     -29.497   7.392 -41.756  0.00  0.00    +0.000 A 
ENDROOT
BRANCH   1  16
ATOM     12  O   LIG     1     -34.541   6.757 -38.967  0.00  0.00    +0.000 OA
ATOM     13  O   LIG     1     -35.111   9.033 -41.688  0.00  0.00    +0.000 OA
ATOM     14  O   LIG     1     -36.649   8.974 -39.451  0.00  0.00    +0.000 OA
ATOM     15  C   LIG     1     -35.187   7.813 -40.979  0.00  0.00    +0.000 C 
ATOM     16  C   LIG     1     -34.049   7.661 -39.977  0.00  0.00    +0.000 C 
ATOM     17  C   LIG     1     -36.410   7.721 -40.087  0.00  0.00    +0.000 C 
ATOM     18  C   LIG     1     -35.973   6.713 -39.038  0.00  0.00    +0.000 C 
BRANCH  18  21
ATOM     19  O   LIG     1     -37.422   5.020 -39.884  0.00  0.00    +0.000 OA
ATOM     20  N   LIG     1     -35.303   4.419 -39.132  0.00  0.00    +0.000 NA
ATOM     21  C   LIG     1     -36.328   5.308 -39.408  0.00  0.00    +0.000 C 
BRANCH  20  22
ATOM     22  C   LIG     1     -35.401   2.999 -39.375  0.00  0.00    +0.000 C 
ATOM     23  C   LIG     1     -36.086   2.286 -38.226  0.00  0.00    +0.000 C 
ENDBRANCH  20  22
ENDBRANCH  18  21
ENDBRANCH   1  16
BRANCH   4  24
ATOM     24  C   LIG     1     -30.662  11.767 -40.135  0.00  0.00    +0.000 C 
BRANCH  24  25
ATOM     25  C   LIG     1     -30.828  12.947 -41.084  0.00  0.00    +0.000 C 
BRANCH  25  26
ATOM     26  N   LIG     1     -30.097  14.110 -40.583  0.00  0.00    +0.000 NA
ATOM     27  N   LIG     1     -29.680  16.874 -39.996  0.00  0.00    +0.000 N 
ATOM     28  C   LIG     1     -29.849  15.069 -41.665  0.00  0.00    +0.000 C 
ATOM     29  C   LIG     1     -30.845  14.760 -39.501  0.00  0.00    +0.000 C 
ATOM     30  C   LIG     1     -29.034  16.264 -41.165  0.00  0.00    +0.000 C 
ATOM     31  C   LIG     1     -30.065  15.946 -38.927  0.00  0.00    +0.000 C 
BRANCH  27  33
ATOM     32 CL   LIG     1     -28.310  22.468 -38.672  0.00  0.00    +0.000 Cl
ATOM     33  C   LIG     1     -29.356  18.198 -39.682  0.00  0.00    +0.000 A 
ATOM     34  C   LIG     1     -30.147  18.917 -38.786  0.00  0.00    +0.000 A 
ATOM     35  C   LIG     1     -28.241  18.800 -40.266  0.00  0.00    +0.000 A 
ATOM     36  C   LIG     1     -29.824  20.237 -38.474  0.00  0.00    +0.000 A 
ATOM     37  C   LIG     1     -27.918  20.120 -39.954  0.00  0.00    +0.000 A 
ATOM     38  C   LIG     1     -28.709  20.839 -39.058  0.00  0.00    +0.000 A 
ENDBRANCH  27  33
ENDBRANCH  25  26
ENDBRANCH  24  25
ENDBRANCH   4  24
TORSDOF 7
ENDMDL
MODEL 7
REMARK VINA RESULT:      -6.5     19.774     22.160
REMARK  Name = 118734345.pdb
REMARK  7 active torsions:
REMARK  status: ('A' for Active; 'I' for Inactive)
REMARK    1  A    between atoms: N_6  and  C_16
REMARK    2  A    between atoms: N_7  and  C_25
REMARK    3  A    between atoms: N_8  and  C_29
REMARK    4  A    between atoms: N_9  and  C_32
REMARK    5  A    between atoms: N_12  and  C_28
REMARK    6  A    between atoms: C_18  and  C_23
REMARK    7  A    between atoms: C_25  and  C_28
REMARK                            x       y       z     vdW  Elec       q    Type
REMARK                         _______ _______ _______ _____ _____    ______ ____
ROOT
ATOM      1  N   LIG     1     -32.170   5.808 -40.858  0.00  0.00    +0.000 N 
ATOM      2  N   LIG     1     -31.130   3.838 -40.880  0.00  0.00    +0.000 NA
ATOM      3  N   LIG     1     -30.348   7.249 -41.569  0.00  0.00    +0.000 NA
ATOM      4  N   LIG     1     -28.385   8.267 -42.261  0.00  0.00    +0.000 NA
ATOM      5  N   LIG     1     -28.308   5.969 -41.967  0.00  0.00    +0.000 NA
ATOM      6  N   LIG     1     -28.203   3.596 -41.670  0.00  0.00    +0.000 NA
ATOM      7  C   LIG     1     -30.887   6.063 -41.254  0.00  0.00    +0.000 A 
ATOM      8  C   LIG     1     -32.267   4.459 -40.646  0.00  0.00    +0.000 A 
ATOM      9  C   LIG     1     -30.259   4.827 -41.261  0.00  0.00    +0.000 A 
ATOM     10  C   LIG     1     -29.050   7.102 -41.914  0.00  0.00    +0.000 A 
ATOM     11  C   LIG     1     -28.920   4.805 -41.635  0.00  0.00    +0.000 A 
ENDROOT
BRANCH   1  16
ATOM     12  O   LIG     1     -34.062   6.522 -39.509  0.00  0.00    +0.000 OA
ATOM     13  O   LIG     1     -33.813   7.621 -42.920  0.00  0.00    +0.000 OA
ATOM     14  O   LIG     1     -35.438   8.802 -41.092  0.00  0.00    +0.000 OA
ATOM     15  C   LIG     1     -34.268   6.829 -41.842  0.00  0.00    +0.000 C 
ATOM     16  C   LIG     1     -33.279   6.818 -40.683  0.00  0.00    +0.000 C 
ATOM     17  C   LIG     1     -35.519   7.381 -41.187  0.00  0.00    +0.000 C 
ATOM     18  C   LIG     1     -35.443   6.791 -39.790  0.00  0.00    +0.000 C 
BRANCH  18  21
ATOM     19  O   LIG     1     -37.269   5.303 -40.160  0.00  0.00    +0.000 OA
ATOM     20  N   LIG     1     -35.413   4.540 -38.980  0.00  0.00    +0.000 NA
ATOM     21  C   LIG     1     -36.151   5.478 -39.682  0.00  0.00    +0.000 C 
BRANCH  20  22
ATOM     22  C   LIG     1     -35.883   3.200 -38.716  0.00  0.00    +0.000 C 
ATOM     23  C   LIG     1     -35.302   2.205 -39.701  0.00  0.00    +0.000 C 
ENDBRANCH  20  22
ENDBRANCH  18  21
ENDBRANCH   1  16
BRANCH   4  24
ATOM     24  C   LIG     1     -29.005   9.572 -42.266  0.00  0.00    +0.000 C 
BRANCH  24  25
ATOM     25  C   LIG     1     -28.382  10.438 -41.178  0.00  0.00    +0.000 C 
BRANCH  25  26
ATOM     26  N   LIG     1     -29.417  11.200 -40.481  0.00  0.00    +0.000 NA
ATOM     27  N   LIG     1     -31.866  12.649 -40.233  0.00  0.00    +0.000 N 
ATOM     28  C   LIG     1     -29.548  12.541 -41.063  0.00  0.00    +0.000 C 
ATOM     29  C   LIG     1     -30.704  10.499 -40.546  0.00  0.00    +0.000 C 
ATOM     30  C   LIG     1     -30.589  13.370 -40.306  0.00  0.00    +0.000 C 
ATOM     31  C   LIG     1     -31.785  11.259 -39.773  0.00  0.00    +0.000 C 
BRANCH  27  33
ATOM     32 CL   LIG     1     -36.769  15.792 -39.229  0.00  0.00    +0.000 Cl
ATOM     33  C   LIG     1     -33.027  13.393 -39.995  0.00  0.00    +0.000 A 
ATOM     34  C   LIG     1     -34.181  13.142 -40.738  0.00  0.00    +0.000 A 
ATOM     35  C   LIG     1     -33.030  14.386 -39.016  0.00  0.00    +0.000 A 
ATOM     36  C   LIG     1     -35.338  13.884 -40.501  0.00  0.00    +0.000 A 
ATOM     37  C   LIG     1     -34.188  15.128 -38.779  0.00  0.00    +0.000 A 
ATOM     38  C   LIG     1     -35.341  14.877 -39.522  0.00  0.00    +0.000 A 
ENDBRANCH  27  33
ENDBRANCH  25  26
ENDBRANCH  24  25
ENDBRANCH   4  24
TORSDOF 7
ENDMDL
