REMARK VINA RESULT:      -7.1      1.854      6.283
REMARK  Name = NEC.pdb
REMARK  7 active torsions:
REMARK  status: ('A' for Active; 'I' for Inactive)
REMARK    1  A    between atoms: C5'_1  and  C4'_6
REMARK    2  A    between atoms: N5'_3  and  C51_4
REMARK    3  A    between atoms: C51_4  and  C52_5
REMARK    4  A    between atoms: C3'_8  and  O3'_9
REMARK    5  A    between atoms: C2'_10  and  O2'_11
REMARK    6  A    between atoms: C1'_12  and  N9_13
REMARK    7  A    between atoms: C6_17  and  N6_18
REMARK                            x       y       z     vdW  Elec       q    Type
REMARK                         _______ _______ _______ _____ _____    ______ ____
ROOT
ATOM      1  C4' NEC     0      -3.118   2.655  -9.250  0.00  0.00    +0.000 C 
ATOM      2  O4' NEC     0      -3.178   1.773  -8.110  0.00  0.00    +0.000 OA
ATOM      3  C3' NEC     0      -1.664   2.491  -9.761  0.00  0.00    +0.000 C 
ATOM      4  C2' NEC     0      -0.872   2.344  -8.438  0.00  0.00    +0.000 C 
ATOM      5  C1' NEC     0      -1.931   1.907  -7.409  0.00  0.00    +0.000 C 
ENDROOT
BRANCH   5   6
ATOM      6  N9  NEC     0      -1.553   0.623  -6.815  0.00  0.00    +0.000 N 
ATOM      7  C8  NEC     0      -0.284   0.189  -6.576  0.00  0.00    +0.000 A 
ATOM      8  N7  NEC     0      -0.313  -0.997  -6.039  0.00  0.00    +0.000 NA
ATOM      9  C5  NEC     0      -1.600  -1.397  -5.901  0.00  0.00    +0.000 A 
ATOM     10  C6  NEC     0      -2.227  -2.550  -5.399  0.00  0.00    +0.000 C 
ATOM     11  N1  NEC     0      -3.554  -2.607  -5.416  0.00  0.00    +0.000 NA
ATOM     12  C2  NEC     0      -4.274  -1.609  -5.892  0.00  0.00    +0.000 C 
ATOM     13  N3  NEC     0      -3.730  -0.511  -6.373  0.00  0.00    +0.000 N 
ATOM     14  C4  NEC     0      -2.410  -0.361  -6.391  0.00  0.00    +0.000 A 
ATOM     15  H   NEC     0      -4.307   0.207  -6.722  0.00  0.00    +0.000 HD
BRANCH  10  16
ATOM     16  N6  NEC     0      -1.480  -3.601  -4.897  0.00  0.00    +0.000 NA
ATOM     17 HN61 NEC     0      -0.937  -3.475  -4.103  0.00  0.00    +0.000 HD
ATOM     18 HN62 NEC     0      -1.501  -4.465  -5.338  0.00  0.00    +0.000 HD
ENDBRANCH  10  16
ENDBRANCH   5   6
BRANCH   1  19
ATOM     19  C5' NEC     0      -4.103   2.225 -10.306  0.00  0.00    +0.000 C 
ATOM     20  O5' NEC     0      -4.850   1.293 -10.095  0.00  0.00    +0.000 OA
ATOM     21  N5' NEC     0      -4.156   2.878 -11.484  0.00  0.00    +0.000 N 
ATOM     22  HN5 NEC     0      -3.560   3.623 -11.652  0.00  0.00    +0.000 HD
BRANCH  21  23
ATOM     23  C51 NEC     0      -5.115   2.460 -12.510  0.00  0.00    +0.000 C 
ATOM     24  C52 NEC     0      -5.428   3.644 -13.427  0.00  0.00    +0.000 C 
ENDBRANCH  21  23
ENDBRANCH   1  19
BRANCH   3  25
ATOM     25  O3' NEC     0      -1.240   3.649 -10.484  0.00  0.00    +0.000 OA
ATOM     26 HO3' NEC     0      -1.294   4.396  -9.873  0.00  0.00    +0.000 HD
ENDBRANCH   3  25
BRANCH   4  27
ATOM     27  O2' NEC     0      -0.292   3.595  -8.060  0.00  0.00    +0.000 OA
ATOM     28 HO2' NEC     0      -1.018   4.232  -8.005  0.00  0.00    +0.000 HD
ENDBRANCH   4  27
TORSDOF 6
