REMARK VINA RESULT:      -7.4      5.316     10.643
REMARK  Name = NGI.pdb
REMARK  14 active torsions:
REMARK  status: ('A' for Active; 'I' for Inactive)
REMARK    1  A    between atoms: C1_1  and  C2_4
REMARK    2  A    between atoms: N1_2  and  C2_4
REMARK    3  A    between atoms: N2_5  and  C5_13
REMARK    4  A    between atoms: C3_7  and  C4_10
REMARK    5  A    between atoms: O3_9  and  C6_16
REMARK    6  A    between atoms: N4_11  and  C10_23
REMARK    7  A    between atoms: O4_12  and  C7_19
REMARK    8  A    between atoms: O5_15  and  C20_33
REMARK    9  A    between atoms: N6_17  and  C12_25
REMARK   10  A    between atoms: C12_25  and  C13_26
REMARK   11  A    between atoms: C13_26  and  C14_27
REMARK   12  A    between atoms: C17_30  and  C18_31
REMARK   13  A    between atoms: C18_31  and  C19_32
REMARK   14  A    between atoms: C19_32  and  C20_33
REMARK                            x       y       z     vdW  Elec       q    Type
REMARK                         _______ _______ _______ _____ _____    ______ ____
ROOT
ATOM      1  N2  NGI     0      -5.802   6.308 -17.581  0.00  0.00    +0.000 N 
ATOM      2  N3  NGI     0      -7.151   7.559 -18.757  0.00  0.00    +0.000 NA
ATOM      3  N5  NGI     0      -8.137   4.351 -20.255  0.00  0.00    +0.000 NA
ATOM      4  N6  NGI     0      -7.286   2.245 -19.710  0.00  0.00    +0.000 N 
ATOM      5  N7  NGI     0      -6.505   4.151 -18.618  0.00  0.00    +0.000 N 
ATOM      6  C8  NGI     0      -6.236   7.577 -17.832  0.00  0.00    +0.000 A 
ATOM      7  C9  NGI     0      -7.355   6.282 -19.163  0.00  0.00    +0.000 A 
ATOM      8  C10 NGI     0      -8.198   5.669 -20.109  0.00  0.00    +0.000 C 
ATOM      9  C11 NGI     0      -7.312   3.617 -19.518  0.00  0.00    +0.000 C 
ATOM     10  C23 NGI     0      -6.495   5.464 -18.412  0.00  0.00    +0.000 A 
ATOM     11  HN6 NGI     0      -6.691   1.693 -19.181  0.00  0.00    +0.000 HD
ATOM     12  H   NGI     0      -5.905   3.571 -18.095  0.00  0.00    +0.000 HD
ENDROOT
BRANCH   1  15
ATOM     13  O2  NGI     0      -5.188   4.731 -15.895  0.00  0.00    +0.000 OA
ATOM     14  C4  NGI     0      -4.406   4.727 -14.682  0.00  0.00    +0.000 C 
ATOM     15  C5  NGI     0      -4.779   5.919 -16.608  0.00  0.00    +0.000 C 
ATOM     16  C6  NGI     0      -4.634   7.004 -15.517  0.00  0.00    +0.000 C 
ATOM     17  C7  NGI     0      -4.383   6.201 -14.221  0.00  0.00    +0.000 C 
BRANCH  14  20
ATOM     18  N1  NGI     0      -4.331   3.360 -12.621  0.00  0.00    +0.000 N 
ATOM     19  O1  NGI     0      -6.247   3.615 -13.710  0.00  0.00    +0.000 OA
ATOM     20  C3  NGI     0      -5.061   3.861 -13.636  0.00  0.00    +0.000 C 
ATOM     21  HN1 NGI     0      -3.383   3.557 -12.562  0.00  0.00    +0.000 HD
BRANCH  18  23
ATOM     22  C1  NGI     0      -3.976   2.241 -10.476  0.00  0.00    +0.000 C 
ATOM     23  C2  NGI     0      -4.969   2.519 -11.606  0.00  0.00    +0.000 C 
ENDBRANCH  18  23
ENDBRANCH  14  20
BRANCH  16  24
ATOM     24  O3  NGI     0      -3.523   7.855 -15.802  0.00  0.00    +0.000 OA
ATOM     25  HO3 NGI     0      -2.965   7.544 -16.529  0.00  0.00    +0.000 HD
ENDBRANCH  16  24
BRANCH  17  26
ATOM     26  O4  NGI     0      -3.108   6.533 -13.666  0.00  0.00    +0.000 OA
ATOM     27  HO4 NGI     0      -2.621   7.200 -14.170  0.00  0.00    +0.000 HD
ENDBRANCH  17  26
ENDBRANCH   1  15
BRANCH   8  28
ATOM     28  N4  NGI     0      -9.071   6.426 -20.870  0.00  0.00    +0.000 NA
ATOM     29  HN4 NGI     0      -9.296   7.328 -20.595  0.00  0.00    +0.000 HD
ATOM     30 HN4A NGI     0      -9.458   6.055 -21.677  0.00  0.00    +0.000 HD
ENDBRANCH   8  28
BRANCH   4  31
ATOM     31  C12 NGI     0      -8.161   1.628 -20.711  0.00  0.00    +0.000 C 
BRANCH  31  32
ATOM     32  C13 NGI     0      -9.309   0.901 -20.008  0.00  0.00    +0.000 C 
BRANCH  32  33
ATOM     33  C14 NGI     0      -9.144  -0.586 -20.184  0.00  0.00    +0.000 A 
ATOM     34  C15 NGI     0      -8.010  -1.089 -20.794  0.00  0.00    +0.000 A 
ATOM     35  C16 NGI     0      -7.860  -2.454 -20.956  0.00  0.00    +0.000 A 
ATOM     36  C17 NGI     0      -8.844  -3.315 -20.509  0.00  0.00    +0.000 A 
ATOM     37  C21 NGI     0      -9.978  -2.813 -19.900  0.00  0.00    +0.000 A 
ATOM     38  C22 NGI     0     -10.126  -1.449 -19.731  0.00  0.00    +0.000 A 
BRANCH  36  39
ATOM     39  C18 NGI     0      -8.679  -4.803 -20.686  0.00  0.00    +0.000 C 
BRANCH  39  40
ATOM     40  C19 NGI     0      -8.543  -5.468 -19.315  0.00  0.00    +0.000 C 
BRANCH  40  42
ATOM     41  O6  NGI     0      -6.516  -4.667 -18.418  0.00  0.00    +0.000 OA
ATOM     42  C20 NGI     0      -7.084  -5.587 -18.958  0.00  0.00    +0.000 C 
BRANCH  42  43
ATOM     43  O5  NGI     0      -6.414  -6.716 -19.239  0.00  0.00    +0.000 OA
ATOM     44  HO5 NGI     0      -5.676  -6.945 -18.658  0.00  0.00    +0.000 HD
ENDBRANCH  42  43
ENDBRANCH  40  42
ENDBRANCH  39  40
ENDBRANCH  36  39
ENDBRANCH  32  33
ENDBRANCH  31  32
ENDBRANCH   4  31
TORSDOF 13
