REMARK VINA RESULT:      -6.7      5.555      9.459
REMARK  Name = NEC.pdb
REMARK  7 active torsions:
REMARK  status: ('A' for Active; 'I' for Inactive)
REMARK    1  A    between atoms: C5'_1  and  C4'_6
REMARK    2  A    between atoms: N5'_3  and  C51_4
REMARK    3  A    between atoms: C51_4  and  C52_5
REMARK    4  A    between atoms: C3'_8  and  O3'_9
REMARK    5  A    between atoms: C2'_10  and  O2'_11
REMARK    6  A    between atoms: C1'_12  and  N9_13
REMARK    7  A    between atoms: C6_17  and  N6_18
REMARK                            x       y       z     vdW  Elec       q    Type
REMARK                         _______ _______ _______ _____ _____    ______ ____
ROOT
ATOM      1  C4' NEC     0      -5.797   5.534 -15.441  0.00  0.00    +0.000 C 
ATOM      2  O4' NEC     0      -5.642   5.289 -14.027  0.00  0.00    +0.000 OA
ATOM      3  C3' NEC     0      -4.984   4.391 -16.100  0.00  0.00    +0.000 C 
ATOM      4  C2' NEC     0      -3.784   4.249 -15.130  0.00  0.00    +0.000 C 
ATOM      5  C1' NEC     0      -4.280   4.885 -13.818  0.00  0.00    +0.000 C 
ENDROOT
BRANCH   5   6
ATOM      6  N9  NEC     0      -4.211   3.907 -12.730  0.00  0.00    +0.000 N 
ATOM      7  C8  NEC     0      -5.188   3.026 -12.376  0.00  0.00    +0.000 A 
ATOM      8  N7  NEC     0      -4.793   2.305 -11.366  0.00  0.00    +0.000 NA
ATOM      9  C5  NEC     0      -3.539   2.677 -11.011  0.00  0.00    +0.000 A 
ATOM     10  C6  NEC     0      -2.629   2.264 -10.023  0.00  0.00    +0.000 C 
ATOM     11  N1  NEC     0      -1.448   2.867  -9.960  0.00  0.00    +0.000 NA
ATOM     12  C2  NEC     0      -1.127   3.833 -10.800  0.00  0.00    +0.000 C 
ATOM     13  N3  NEC     0      -1.948   4.252 -11.741  0.00  0.00    +0.000 N 
ATOM     14  C4  NEC     0      -3.150   3.704 -11.885  0.00  0.00    +0.000 A 
ATOM     15  H   NEC     0      -1.668   4.979 -12.343  0.00  0.00    +0.000 HD
BRANCH  10  16
ATOM     16  N6  NEC     0      -2.955   1.252  -9.138  0.00  0.00    +0.000 NA
ATOM     17 HN61 NEC     0      -3.638   1.397  -8.465  0.00  0.00    +0.000 HD
ATOM     18 HN62 NEC     0      -2.502   0.396  -9.192  0.00  0.00    +0.000 HD
ENDBRANCH  10  16
ENDBRANCH   5   6
BRANCH   1  19
ATOM     19  C5' NEC     0      -7.248   5.449 -15.838  0.00  0.00    +0.000 C 
ATOM     20  O5' NEC     0      -8.016   4.770 -15.189  0.00  0.00    +0.000 OA
ATOM     21  N5' NEC     0      -7.693   6.128 -16.914  0.00  0.00    +0.000 N 
ATOM     22  HN5 NEC     0      -7.080   6.671 -17.432  0.00  0.00    +0.000 HD
BRANCH  21  23
ATOM     23  C51 NEC     0      -9.104   6.047 -17.298  0.00  0.00    +0.000 C 
ATOM     24  C52 NEC     0      -9.860   7.246 -16.722  0.00  0.00    +0.000 C 
ENDBRANCH  21  23
ENDBRANCH   1  19
BRANCH   3  25
ATOM     25  O3' NEC     0      -4.542   4.761 -17.408  0.00  0.00    +0.000 OA
ATOM     26 HO3' NEC     0      -3.615   4.495 -17.476  0.00  0.00    +0.000 HD
ENDBRANCH   3  25
BRANCH   4  27
ATOM     27  O2' NEC     0      -2.648   4.957 -15.632  0.00  0.00    +0.000 OA
ATOM     28 HO2' NEC     0      -2.961   5.498 -16.371  0.00  0.00    +0.000 HD
ENDBRANCH   4  27
TORSDOF 6
