REMARK VINA RESULT:      -7.2      3.061     12.764
REMARK  Name = NGI.pdb
REMARK  14 active torsions:
REMARK  status: ('A' for Active; 'I' for Inactive)
REMARK    1  A    between atoms: C1_1  and  C2_4
REMARK    2  A    between atoms: N1_2  and  C2_4
REMARK    3  A    between atoms: N2_5  and  C5_13
REMARK    4  A    between atoms: C3_7  and  C4_10
REMARK    5  A    between atoms: O3_9  and  C6_16
REMARK    6  A    between atoms: N4_11  and  C10_23
REMARK    7  A    between atoms: O4_12  and  C7_19
REMARK    8  A    between atoms: O5_15  and  C20_33
REMARK    9  A    between atoms: N6_17  and  C12_25
REMARK   10  A    between atoms: C12_25  and  C13_26
REMARK   11  A    between atoms: C13_26  and  C14_27
REMARK   12  A    between atoms: C17_30  and  C18_31
REMARK   13  A    between atoms: C18_31  and  C19_32
REMARK   14  A    between atoms: C19_32  and  C20_33
REMARK                            x       y       z     vdW  Elec       q    Type
REMARK                         _______ _______ _______ _____ _____    ______ ____
ROOT
ATOM      1  N2  NGI     0      -3.930   0.688  -9.468  0.00  0.00    +0.000 N 
ATOM      2  N3  NGI     0      -5.898  -0.134  -9.930  0.00  0.00    +0.000 NA
ATOM      3  N5  NGI     0      -5.927   2.495 -12.497  0.00  0.00    +0.000 NA
ATOM      4  N6  NGI     0      -4.229   4.042 -12.918  0.00  0.00    +0.000 N 
ATOM      5  N7  NGI     0      -3.985   2.455 -11.227  0.00  0.00    +0.000 N 
ATOM      6  C8  NGI     0      -4.865  -0.252  -9.148  0.00  0.00    +0.000 A 
ATOM      7  C9  NGI     0      -5.695   0.891 -10.793  0.00  0.00    +0.000 A 
ATOM      8  C10 NGI     0      -6.445   1.466 -11.835  0.00  0.00    +0.000 C 
ATOM      9  C11 NGI     0      -4.723   2.967 -12.198  0.00  0.00    +0.000 C 
ATOM     10  C23 NGI     0      -4.429   1.428 -10.509  0.00  0.00    +0.000 A 
ATOM     11  HN6 NGI     0      -3.352   4.400 -12.714  0.00  0.00    +0.000 HD
ATOM     12  H   NGI     0      -3.099   2.838 -11.035  0.00  0.00    +0.000 HD
ENDROOT
BRANCH   1  15
ATOM     13  O2  NGI     0      -2.355  -0.223  -7.919  0.00  0.00    +0.000 OA
ATOM     14  C4  NGI     0      -1.363   0.277  -6.998  0.00  0.00    +0.000 C 
ATOM     15  C5  NGI     0      -2.632   0.876  -8.814  0.00  0.00    +0.000 C 
ATOM     16  C6  NGI     0      -2.663   2.126  -7.907  0.00  0.00    +0.000 C 
ATOM     17  C7  NGI     0      -1.808   1.723  -6.684  0.00  0.00    +0.000 C 
BRANCH  14  20
ATOM     18  N1  NGI     0      -1.826  -1.811  -5.756  0.00  0.00    +0.000 N 
ATOM     19  O1  NGI     0      -0.908  -0.083  -4.710  0.00  0.00    +0.000 OA
ATOM     20  C3  NGI     0      -1.349  -0.551  -5.739  0.00  0.00    +0.000 C 
ATOM     21  HN1 NGI     0      -2.179  -2.185  -6.578  0.00  0.00    +0.000 HD
BRANCH  18  23
ATOM     22  C1  NGI     0      -3.187  -3.258  -4.329  0.00  0.00    +0.000 C 
ATOM     23  C2  NGI     0      -1.813  -2.615  -4.531  0.00  0.00    +0.000 C 
ENDBRANCH  18  23
ENDBRANCH  14  20
BRANCH  16  24
ATOM     24  O3  NGI     0      -2.081   3.246  -8.577  0.00  0.00    +0.000 OA
ATOM     25  HO3 NGI     0      -2.047   3.154  -9.539  0.00  0.00    +0.000 HD
ENDBRANCH  16  24
BRANCH  17  26
ATOM     26  O4  NGI     0      -0.673   2.582  -6.562  0.00  0.00    +0.000 OA
ATOM     27  HO4 NGI     0       0.038   2.220  -6.015  0.00  0.00    +0.000 HD
ENDBRANCH  17  26
ENDBRANCH   1  15
BRANCH   8  28
ATOM     28  N4  NGI     0      -7.694   0.971 -12.163  0.00  0.00    +0.000 NA
ATOM     29  HN4 NGI     0      -7.772   0.116 -12.615  0.00  0.00    +0.000 HD
ATOM     30 HN4A NGI     0      -8.491   1.477 -11.943  0.00  0.00    +0.000 HD
ENDBRANCH   8  28
BRANCH   4  31
ATOM     31  C12 NGI     0      -5.031   4.637 -13.990  0.00  0.00    +0.000 C 
BRANCH  31  32
ATOM     32  C13 NGI     0      -4.174   5.628 -14.779  0.00  0.00    +0.000 C 
BRANCH  32  33
ATOM     33  C14 NGI     0      -5.024   6.313 -15.818  0.00  0.00    +0.000 A 
ATOM     34  C15 NGI     0      -6.382   6.058 -15.876  0.00  0.00    +0.000 A 
ATOM     35  C16 NGI     0      -7.162   6.686 -16.830  0.00  0.00    +0.000 A 
ATOM     36  C17 NGI     0      -6.584   7.567 -17.725  0.00  0.00    +0.000 A 
ATOM     37  C21 NGI     0      -5.227   7.821 -17.666  0.00  0.00    +0.000 A 
ATOM     38  C22 NGI     0      -4.448   7.199 -16.709  0.00  0.00    +0.000 A 
BRANCH  36  39
ATOM     39  C18 NGI     0      -7.435   8.251 -18.764  0.00  0.00    +0.000 C 
BRANCH  39  40
ATOM     40  C19 NGI     0      -7.199   7.599 -20.127  0.00  0.00    +0.000 C 
BRANCH  40  42
ATOM     41  O6  NGI     0      -8.032   5.646 -21.149  0.00  0.00    +0.000 OA
ATOM     42  C20 NGI     0      -8.244   6.539 -20.364  0.00  0.00    +0.000 C 
BRANCH  42  43
ATOM     43  O5  NGI     0      -9.411   6.587 -19.700  0.00  0.00    +0.000 OA
ATOM     44  HO5 NGI     0      -9.951   7.380 -19.820  0.00  0.00    +0.000 HD
ENDBRANCH  42  43
ENDBRANCH  40  42
ENDBRANCH  39  40
ENDBRANCH  36  39
ENDBRANCH  32  33
ENDBRANCH  31  32
ENDBRANCH   4  31
TORSDOF 13
