REMARK VINA RESULT:      -7.1      1.934      6.291
REMARK  Name = NEC.pdb
REMARK  7 active torsions:
REMARK  status: ('A' for Active; 'I' for Inactive)
REMARK    1  A    between atoms: C5'_1  and  C4'_6
REMARK    2  A    between atoms: N5'_3  and  C51_4
REMARK    3  A    between atoms: C51_4  and  C52_5
REMARK    4  A    between atoms: C3'_8  and  O3'_9
REMARK    5  A    between atoms: C2'_10  and  O2'_11
REMARK    6  A    between atoms: C1'_12  and  N9_13
REMARK    7  A    between atoms: C6_17  and  N6_18
REMARK                            x       y       z     vdW  Elec       q    Type
REMARK                         _______ _______ _______ _____ _____    ______ ____
ROOT
ATOM      1  C4' NEC     0      -3.088   2.671  -9.294  0.00  0.00    +0.000 C 
ATOM      2  O4' NEC     0      -3.162   1.792  -8.152  0.00  0.00    +0.000 OA
ATOM      3  C3' NEC     0      -1.629   2.503  -9.789  0.00  0.00    +0.000 C 
ATOM      4  C2' NEC     0      -0.851   2.356  -8.458  0.00  0.00    +0.000 C 
ATOM      5  C1' NEC     0      -1.922   1.924  -7.438  0.00  0.00    +0.000 C 
ENDROOT
BRANCH   5   6
ATOM      6  N9  NEC     0      -1.553   0.641  -6.837  0.00  0.00    +0.000 N 
ATOM      7  C8  NEC     0      -0.287   0.202  -6.590  0.00  0.00    +0.000 A 
ATOM      8  N7  NEC     0      -0.325  -0.982  -6.049  0.00  0.00    +0.000 NA
ATOM      9  C5  NEC     0      -1.615  -1.375  -5.916  0.00  0.00    +0.000 A 
ATOM     10  C6  NEC     0      -2.250  -2.523  -5.413  0.00  0.00    +0.000 C 
ATOM     11  N1  NEC     0      -3.577  -2.574  -5.437  0.00  0.00    +0.000 NA
ATOM     12  C2  NEC     0      -4.290  -1.574  -5.921  0.00  0.00    +0.000 C 
ATOM     13  N3  NEC     0      -3.738  -0.480  -6.403  0.00  0.00    +0.000 N 
ATOM     14  C4  NEC     0      -2.417  -0.337  -6.414  0.00  0.00    +0.000 A 
ATOM     15  H   NEC     0      -4.310   0.239  -6.757  0.00  0.00    +0.000 HD
BRANCH  10  16
ATOM     16  N6  NEC     0      -1.511  -3.576  -4.902  0.00  0.00    +0.000 NA
ATOM     17 HN61 NEC     0      -0.848  -3.414  -4.213  0.00  0.00    +0.000 HD
ATOM     18 HN62 NEC     0      -1.657  -4.476  -5.233  0.00  0.00    +0.000 HD
ENDBRANCH  10  16
ENDBRANCH   5   6
BRANCH   1  19
ATOM     19  C5' NEC     0      -4.063   2.241 -10.359  0.00  0.00    +0.000 C 
ATOM     20  O5' NEC     0      -4.791   1.290 -10.166  0.00  0.00    +0.000 OA
ATOM     21  N5' NEC     0      -4.128   2.914 -11.524  0.00  0.00    +0.000 N 
ATOM     22  HN5 NEC     0      -3.547   3.675 -11.678  0.00  0.00    +0.000 HD
BRANCH  21  23
ATOM     23  C51 NEC     0      -5.077   2.497 -12.559  0.00  0.00    +0.000 C 
ATOM     24  C52 NEC     0      -5.426   3.695 -13.444  0.00  0.00    +0.000 C 
ENDBRANCH  21  23
ENDBRANCH   1  19
BRANCH   3  25
ATOM     25  O3' NEC     0      -1.194   3.657 -10.511  0.00  0.00    +0.000 OA
ATOM     26 HO3' NEC     0      -0.913   3.352 -11.385  0.00  0.00    +0.000 HD
ENDBRANCH   3  25
BRANCH   4  27
ATOM     27  O2' NEC     0      -0.272   3.607  -8.076  0.00  0.00    +0.000 OA
ATOM     28 HO2' NEC     0      -0.009   3.521  -7.150  0.00  0.00    +0.000 HD
ENDBRANCH   4  27
TORSDOF 6
