MODEL 1
REMARK VINA RESULT:      -7.0      0.000      0.000
REMARK  Name = ADN.pdb
REMARK  6 active torsions:
REMARK  status: ('A' for Active; 'I' for Inactive)
REMARK    1  A    between atoms: O5'_1  and  C5'_2
REMARK    2  A    between atoms: C5'_2  and  C4'_3
REMARK    3  A    between atoms: C3'_5  and  O3'_6
REMARK    4  A    between atoms: C2'_7  and  O2'_8
REMARK    5  A    between atoms: C1'_9  and  N9_10
REMARK    6  A    between atoms: C6_14  and  N6_15
REMARK                            x       y       z     vdW  Elec       q    Type
REMARK                         _______ _______ _______ _____ _____    ______ ____
ROOT
ATOM      1  N9  ADN     0      -2.701   1.866  -9.544  0.00  0.00    +0.000 N 
ATOM      2  C8  ADN     0      -2.048   2.903 -10.141  0.00  0.00    +0.000 A 
ATOM      3  N7  ADN     0      -2.758   3.369 -11.127  0.00  0.00    +0.000 NA
ATOM      4  C5  ADN     0      -3.909   2.659 -11.228  0.00  0.00    +0.000 A 
ATOM      5  C6  ADN     0      -5.031   2.712 -12.071  0.00  0.00    +0.000 C 
ATOM      6  N1  ADN     0      -6.012   1.838 -11.875  0.00  0.00    +0.000 NA
ATOM      7  C2  ADN     0      -5.945   0.942 -10.907  0.00  0.00    +0.000 C 
ATOM      8  N3  ADN     0      -4.917   0.859 -10.089  0.00  0.00    +0.000 N 
ATOM      9  C4  ADN     0      -3.888   1.691 -10.210  0.00  0.00    +0.000 A 
ATOM     10  H   ADN     0      -4.911   0.175  -9.381  0.00  0.00    +0.000 HD
ENDROOT
BRANCH   1  15
ATOM     11  C4' ADN     0      -2.872  -0.362  -6.742  0.00  0.00    +0.000 C 
ATOM     12  O4' ADN     0      -3.141   0.009  -8.111  0.00  0.00    +0.000 OA
ATOM     13  C3' ADN     0      -2.653   0.978  -6.007  0.00  0.00    +0.000 C 
ATOM     14  C2' ADN     0      -2.215   1.953  -7.125  0.00  0.00    +0.000 C 
ATOM     15  C1' ADN     0      -2.225   1.086  -8.402  0.00  0.00    +0.000 C 
BRANCH  13  16
ATOM     16  O3' ADN     0      -1.625   0.848  -5.023  0.00  0.00    +0.000 OA
ATOM     17 HO3' ADN     0      -1.989   1.187  -4.193  0.00  0.00    +0.000 HD
ENDBRANCH  13  16
BRANCH  14  18
ATOM     18  O2' ADN     0      -0.904   2.457  -6.863  0.00  0.00    +0.000 OA
ATOM     19 HO2' ADN     0      -0.916   2.818  -5.966  0.00  0.00    +0.000 HD
ENDBRANCH  14  18
BRANCH  11  20
ATOM     20  C5' ADN     0      -4.067  -1.110  -6.147  0.00  0.00    +0.000 C 
BRANCH  20  21
ATOM     21  O5' ADN     0      -3.603  -2.258  -5.433  0.00  0.00    +0.000 OA
ATOM     22 HO5' ADN     0      -3.871  -3.033  -5.946  0.00  0.00    +0.000 HD
ENDBRANCH  20  21
ENDBRANCH  11  20
ENDBRANCH   1  15
BRANCH   5  23
ATOM     23  N6  ADN     0      -5.110   3.646 -13.088  0.00  0.00    +0.000 NA
ATOM     24 HN61 ADN     0      -5.918   4.171 -13.204  0.00  0.00    +0.000 HD
ATOM     25 HN62 ADN     0      -4.355   3.781 -13.683  0.00  0.00    +0.000 HD
ENDBRANCH   5  23
TORSDOF 6
ENDMDL
