REMARK VINA RESULT:      -5.9      8.908     11.029
REMARK  Name = ADN.pdb
REMARK  6 active torsions:
REMARK  status: ('A' for Active; 'I' for Inactive)
REMARK    1  A    between atoms: O5'_1  and  C5'_2
REMARK    2  A    between atoms: C5'_2  and  C4'_3
REMARK    3  A    between atoms: C3'_5  and  O3'_6
REMARK    4  A    between atoms: C2'_7  and  O2'_8
REMARK    5  A    between atoms: C1'_9  and  N9_10
REMARK    6  A    between atoms: C6_14  and  N6_15
REMARK                            x       y       z     vdW  Elec       q    Type
REMARK                         _______ _______ _______ _____ _____    ______ ____
ROOT
ATOM      1  N9  ADN     0      -5.625   5.345 -17.217  0.00  0.00    +0.000 N 
ATOM      2  C8  ADN     0      -5.023   4.134 -17.393  0.00  0.00    +0.000 A 
ATOM      3  N7  ADN     0      -4.006   4.021 -16.588  0.00  0.00    +0.000 NA
ATOM      4  C5  ADN     0      -3.888   5.152 -15.851  0.00  0.00    +0.000 A 
ATOM      5  C6  ADN     0      -3.010   5.587 -14.843  0.00  0.00    +0.000 C 
ATOM      6  N1  ADN     0      -3.198   6.792 -14.317  0.00  0.00    +0.000 NA
ATOM      7  C2  ADN     0      -4.187   7.567 -14.721  0.00  0.00    +0.000 C 
ATOM      8  N3  ADN     0      -5.037   7.200 -15.657  0.00  0.00    +0.000 N 
ATOM      9  C4  ADN     0      -4.928   6.011 -16.241  0.00  0.00    +0.000 A 
ATOM     10  H   ADN     0      -5.761   7.811 -15.926  0.00  0.00    +0.000 HD
ENDROOT
BRANCH   1  15
ATOM     11  C4' ADN     0      -8.888   6.756 -17.676  0.00  0.00    +0.000 C 
ATOM     12  O4' ADN     0      -7.565   6.729 -17.097  0.00  0.00    +0.000 OA
ATOM     13  C3' ADN     0      -9.167   5.294 -18.085  0.00  0.00    +0.000 C 
ATOM     14  C2' ADN     0      -7.759   4.677 -18.263  0.00  0.00    +0.000 C 
ATOM     15  C1' ADN     0      -6.798   5.841 -17.937  0.00  0.00    +0.000 C 
BRANCH  13  16
ATOM     16  O3' ADN     0      -9.894   5.248 -19.315  0.00  0.00    +0.000 OA
ATOM     17 HO3' ADN     0      -9.617   6.016 -19.832  0.00  0.00    +0.000 HD
ENDBRANCH  13  16
BRANCH  14  18
ATOM     18  O2' ADN     0      -7.576   4.230 -19.608  0.00  0.00    +0.000 OA
ATOM     19 HO2' ADN     0      -8.454   4.181 -20.010  0.00  0.00    +0.000 HD
ENDBRANCH  14  18
BRANCH  11  20
ATOM     20  C5' ADN     0      -9.913   7.227 -16.642  0.00  0.00    +0.000 C 
BRANCH  20  21
ATOM     21  O5' ADN     0     -11.228   6.882 -17.084  0.00  0.00    +0.000 OA
ATOM     22 HO5' ADN     0     -11.707   7.713 -17.207  0.00  0.00    +0.000 HD
ENDBRANCH  20  21
ENDBRANCH  11  20
ENDBRANCH   1  15
BRANCH   5  23
ATOM     23  N6  ADN     0      -1.970   4.782 -14.414  0.00  0.00    +0.000 NA
ATOM     24 HN61 ADN     0      -1.308   4.465 -15.049  0.00  0.00    +0.000 HD
ATOM     25 HN62 ADN     0      -1.900   4.537 -13.478  0.00  0.00    +0.000 HD
ENDBRANCH   5  23
TORSDOF 6
