REMARK VINA RESULT:      -6.9      3.693     11.560
REMARK  Name = NGI.pdb
REMARK  14 active torsions:
REMARK  status: ('A' for Active; 'I' for Inactive)
REMARK    1  A    between atoms: C1_1  and  C2_4
REMARK    2  A    between atoms: N1_2  and  C2_4
REMARK    3  A    between atoms: N2_5  and  C5_13
REMARK    4  A    between atoms: C3_7  and  C4_10
REMARK    5  A    between atoms: O3_9  and  C6_16
REMARK    6  A    between atoms: N4_11  and  C10_23
REMARK    7  A    between atoms: O4_12  and  C7_19
REMARK    8  A    between atoms: O5_15  and  C20_33
REMARK    9  A    between atoms: N6_17  and  C12_25
REMARK   10  A    between atoms: C12_25  and  C13_26
REMARK   11  A    between atoms: C13_26  and  C14_27
REMARK   12  A    between atoms: C17_30  and  C18_31
REMARK   13  A    between atoms: C18_31  and  C19_32
REMARK   14  A    between atoms: C19_32  and  C20_33
REMARK                            x       y       z     vdW  Elec       q    Type
REMARK                         _______ _______ _______ _____ _____    ______ ____
ROOT
ATOM      1  N2  NGI     0      -4.382   0.973  -9.219  0.00  0.00    +0.000 N 
ATOM      2  N3  NGI     0      -5.739  -0.559  -9.978  0.00  0.00    +0.000 NA
ATOM      3  N5  NGI     0      -6.033   1.721 -12.845  0.00  0.00    +0.000 NA
ATOM      4  N6  NGI     0      -4.947   3.773 -13.103  0.00  0.00    +0.000 N 
ATOM      5  N7  NGI     0      -4.603   2.490 -11.187  0.00  0.00    +0.000 N 
ATOM      6  C8  NGI     0      -4.972  -0.233  -8.979  0.00  0.00    +0.000 A 
ATOM      7  C9  NGI     0      -5.697   0.419 -10.916  0.00  0.00    +0.000 A 
ATOM      8  C10 NGI     0      -6.305   0.610 -12.171  0.00  0.00    +0.000 C 
ATOM      9  C11 NGI     0      -5.196   2.630 -12.360  0.00  0.00    +0.000 C 
ATOM     10  C23 NGI     0      -4.824   1.411 -10.442  0.00  0.00    +0.000 A 
ATOM     11  HN6 NGI     0      -4.338   4.447 -12.766  0.00  0.00    +0.000 HD
ATOM     12  H   NGI     0      -3.992   3.190 -10.862  0.00  0.00    +0.000 HD
ENDROOT
BRANCH   1  15
ATOM     13  O2  NGI     0      -3.028   2.920  -8.928  0.00  0.00    +0.000 OA
ATOM     14  C4  NGI     0      -1.799   3.265  -8.255  0.00  0.00    +0.000 C 
ATOM     15  C5  NGI     0      -3.452   1.674  -8.331  0.00  0.00    +0.000 C 
ATOM     16  C6  NGI     0      -2.153   0.857  -8.158  0.00  0.00    +0.000 C 
ATOM     17  C7  NGI     0      -1.040   1.927  -8.107  0.00  0.00    +0.000 C 
BRANCH  14  20
ATOM     18  N1  NGI     0      -1.070   4.186 -10.433  0.00  0.00    +0.000 N 
ATOM     19  O1  NGI     0      -0.286   5.053  -8.547  0.00  0.00    +0.000 OA
ATOM     20  C3  NGI     0      -0.997   4.232  -9.088  0.00  0.00    +0.000 C 
ATOM     21  HN1 NGI     0      -1.638   3.529 -10.865  0.00  0.00    +0.000 HD
BRANCH  18  23
ATOM     22  C1  NGI     0      -1.227   5.892 -12.177  0.00  0.00    +0.000 C 
ATOM     23  C2  NGI     0      -0.290   5.126 -11.241  0.00  0.00    +0.000 C 
ENDBRANCH  18  23
ENDBRANCH  14  20
BRANCH  16  24
ATOM     24  O3  NGI     0      -2.188   0.113  -6.939  0.00  0.00    +0.000 OA
ATOM     25  HO3 NGI     0      -2.439  -0.815  -7.051  0.00  0.00    +0.000 HD
ENDBRANCH  16  24
BRANCH  17  26
ATOM     26  O4  NGI     0      -0.354   1.877  -6.855  0.00  0.00    +0.000 OA
ATOM     27  HO4 NGI     0      -0.095   0.985  -6.584  0.00  0.00    +0.000 HD
ENDBRANCH  17  26
ENDBRANCH   1  15
BRANCH   8  28
ATOM     28  N4  NGI     0      -7.166  -0.339 -12.690  0.00  0.00    +0.000 NA
ATOM     29  HN4 NGI     0      -7.976  -0.061 -13.146  0.00  0.00    +0.000 HD
ATOM     30 HN4A NGI     0      -6.962  -1.283 -12.597  0.00  0.00    +0.000 HD
ENDBRANCH   8  28
BRANCH   4  31
ATOM     31  C12 NGI     0      -5.601   3.961 -14.401  0.00  0.00    +0.000 C 
BRANCH  31  32
ATOM     32  C13 NGI     0      -4.545   3.987 -15.507  0.00  0.00    +0.000 C 
BRANCH  32  33
ATOM     33  C14 NGI     0      -4.598   5.312 -16.221  0.00  0.00    +0.000 A 
ATOM     34  C15 NGI     0      -5.197   5.404 -17.464  0.00  0.00    +0.000 A 
ATOM     35  C16 NGI     0      -5.245   6.620 -18.120  0.00  0.00    +0.000 A 
ATOM     36  C17 NGI     0      -4.693   7.744 -17.533  0.00  0.00    +0.000 A 
ATOM     37  C21 NGI     0      -4.094   7.652 -16.292  0.00  0.00    +0.000 A 
ATOM     38  C22 NGI     0      -4.051   6.438 -15.632  0.00  0.00    +0.000 A 
BRANCH  36  39
ATOM     39  C18 NGI     0      -4.746   9.069 -18.249  0.00  0.00    +0.000 C 
BRANCH  39  40
ATOM     40  C19 NGI     0      -4.191   8.908 -19.664  0.00  0.00    +0.000 C 
BRANCH  40  42
ATOM     41  O6  NGI     0      -2.841  10.798 -19.270  0.00  0.00    +0.000 OA
ATOM     42  C20 NGI     0      -2.928   9.718 -19.804  0.00  0.00    +0.000 C 
BRANCH  42  43
ATOM     43  O5  NGI     0      -1.899   9.239 -20.521  0.00  0.00    +0.000 OA
ATOM     44  HO5 NGI     0      -2.101   8.900 -21.405  0.00  0.00    +0.000 HD
ENDBRANCH  42  43
ENDBRANCH  40  42
ENDBRANCH  39  40
ENDBRANCH  36  39
ENDBRANCH  32  33
ENDBRANCH  31  32
ENDBRANCH   4  31
TORSDOF 13
