REMARK VINA RESULT:      -9.7      2.700     12.088
REMARK  Name = NGI.pdb
REMARK  14 active torsions:
REMARK  status: ('A' for Active; 'I' for Inactive)
REMARK    1  A    between atoms: C1_1  and  C2_4
REMARK    2  A    between atoms: N1_2  and  C2_4
REMARK    3  A    between atoms: N2_5  and  C5_13
REMARK    4  A    between atoms: C3_7  and  C4_10
REMARK    5  A    between atoms: O3_9  and  C6_16
REMARK    6  A    between atoms: N4_11  and  C10_23
REMARK    7  A    between atoms: O4_12  and  C7_19
REMARK    8  A    between atoms: O5_15  and  C20_33
REMARK    9  A    between atoms: N6_17  and  C12_25
REMARK   10  A    between atoms: C12_25  and  C13_26
REMARK   11  A    between atoms: C13_26  and  C14_27
REMARK   12  A    between atoms: C17_30  and  C18_31
REMARK   13  A    between atoms: C18_31  and  C19_32
REMARK   14  A    between atoms: C19_32  and  C20_33
REMARK                            x       y       z     vdW  Elec       q    Type
REMARK                         _______ _______ _______ _____ _____    ______ ____
ROOT
ATOM      1  N2  NGI     0      -3.594   0.991  -9.338  0.00  0.00    +0.000 N 
ATOM      2  N3  NGI     0      -5.449   0.852 -10.480  0.00  0.00    +0.000 NA
ATOM      3  N5  NGI     0      -4.045   3.715 -12.306  0.00  0.00    +0.000 NA
ATOM      4  N6  NGI     0      -1.989   4.745 -11.902  0.00  0.00    +0.000 N 
ATOM      5  N7  NGI     0      -2.673   2.931 -10.607  0.00  0.00    +0.000 N 
ATOM      6  C8  NGI     0      -4.775   0.328  -9.498  0.00  0.00    +0.000 A 
ATOM      7  C9  NGI     0      -4.749   1.886 -11.006  0.00  0.00    +0.000 A 
ATOM      8  C10 NGI     0      -4.972   2.798 -12.053  0.00  0.00    +0.000 C 
ATOM      9  C11 NGI     0      -2.924   3.769 -11.599  0.00  0.00    +0.000 C 
ATOM     10  C23 NGI     0      -3.550   1.986 -10.282  0.00  0.00    +0.000 A 
ATOM     11  HN6 NGI     0      -1.163   4.800 -11.397  0.00  0.00    +0.000 HD
ATOM     12  H   NGI     0      -1.830   3.008 -10.105  0.00  0.00    +0.000 HD
ENDROOT
BRANCH   1  15
ATOM     13  O2  NGI     0      -2.783  -0.607  -7.758  0.00  0.00    +0.000 OA
ATOM     14  C4  NGI     0      -2.071  -0.588  -6.502  0.00  0.00    +0.000 C 
ATOM     15  C5  NGI     0      -2.565   0.698  -8.338  0.00  0.00    +0.000 C 
ATOM     16  C6  NGI     0      -2.671   1.682  -7.152  0.00  0.00    +0.000 C 
ATOM     17  C7  NGI     0      -2.340   0.816  -5.916  0.00  0.00    +0.000 C 
BRANCH  14  20
ATOM     18  N1  NGI     0      -1.762  -2.355  -4.797  0.00  0.00    +0.000 N 
ATOM     19  O1  NGI     0      -3.798  -1.878  -5.540  0.00  0.00    +0.000 OA
ATOM     20  C3  NGI     0      -2.606  -1.653  -5.579  0.00  0.00    +0.000 C 
ATOM     21  HN1 NGI     0      -0.809  -2.175  -4.829  0.00  0.00    +0.000 HD
BRANCH  18  23
ATOM     22  C1  NGI     0      -1.117  -4.120  -3.233  0.00  0.00    +0.000 C 
ATOM     23  C2  NGI     0      -2.283  -3.389  -3.901  0.00  0.00    +0.000 C 
ENDBRANCH  18  23
ENDBRANCH  14  20
BRANCH  16  24
ATOM     24  O3  NGI     0      -1.722   2.740  -7.291  0.00  0.00    +0.000 OA
ATOM     25  HO3 NGI     0      -1.244   2.731  -8.132  0.00  0.00    +0.000 HD
ENDBRANCH  16  24
BRANCH  17  26
ATOM     26  O4  NGI     0      -1.175   1.313  -5.254  0.00  0.00    +0.000 OA
ATOM     27  HO4 NGI     0      -0.446   1.534  -5.852  0.00  0.00    +0.000 HD
ENDBRANCH  17  26
ENDBRANCH   1  15
BRANCH   8  28
ATOM     28  N4  NGI     0      -6.132   2.739 -12.804  0.00  0.00    +0.000 NA
ATOM     29  HN4 NGI     0      -6.247   3.330 -13.565  0.00  0.00    +0.000 HD
ATOM     30 HN4A NGI     0      -6.831   2.109 -12.571  0.00  0.00    +0.000 HD
ENDBRANCH   8  28
BRANCH   4  31
ATOM     31  C12 NGI     0      -2.247   5.696 -12.987  0.00  0.00    +0.000 C 
BRANCH  31  32
ATOM     32  C13 NGI     0      -1.985   5.017 -14.333  0.00  0.00    +0.000 C 
BRANCH  32  33
ATOM     33  C14 NGI     0      -3.105   5.343 -15.287  0.00  0.00    +0.000 A 
ATOM     34  C15 NGI     0      -3.765   4.325 -15.950  0.00  0.00    +0.000 A 
ATOM     35  C16 NGI     0      -4.793   4.625 -16.825  0.00  0.00    +0.000 A 
ATOM     36  C17 NGI     0      -5.158   5.941 -17.038  0.00  0.00    +0.000 A 
ATOM     37  C21 NGI     0      -4.498   6.957 -16.375  0.00  0.00    +0.000 A 
ATOM     38  C22 NGI     0      -3.475   6.659 -15.495  0.00  0.00    +0.000 A 
BRANCH  36  39
ATOM     39  C18 NGI     0      -6.279   6.266 -17.992  0.00  0.00    +0.000 C 
BRANCH  39  40
ATOM     40  C19 NGI     0      -7.539   6.616 -17.200  0.00  0.00    +0.000 C 
BRANCH  40  42
ATOM     41  O6  NGI     0      -8.335   5.052 -15.626  0.00  0.00    +0.000 OA
ATOM     42  C20 NGI     0      -8.246   5.348 -16.795  0.00  0.00    +0.000 C 
BRANCH  42  43
ATOM     43  O5  NGI     0      -8.777   4.547 -17.732  0.00  0.00    +0.000 OA
ATOM     44  HO5 NGI     0      -8.217   4.327 -18.490  0.00  0.00    +0.000 HD
ENDBRANCH  42  43
ENDBRANCH  40  42
ENDBRANCH  39  40
ENDBRANCH  36  39
ENDBRANCH  32  33
ENDBRANCH  31  32
ENDBRANCH   4  31
TORSDOF 13
