REMARK VINA RESULT:      -7.3      1.354      2.525
REMARK  Name = NEC.pdb
REMARK  7 active torsions:
REMARK  status: ('A' for Active; 'I' for Inactive)
REMARK    1  A    between atoms: C5'_1  and  C4'_6
REMARK    2  A    between atoms: N5'_3  and  C51_4
REMARK    3  A    between atoms: C51_4  and  C52_5
REMARK    4  A    between atoms: C3'_8  and  O3'_9
REMARK    5  A    between atoms: C2'_10  and  O2'_11
REMARK    6  A    between atoms: C1'_12  and  N9_13
REMARK    7  A    between atoms: C6_17  and  N6_18
REMARK                            x       y       z     vdW  Elec       q    Type
REMARK                         _______ _______ _______ _____ _____    ______ ____
ROOT
ATOM      1  C4' NEC     0      -1.929   0.438  -7.267  0.00  0.00    +0.000 C 
ATOM      2  O4' NEC     0      -2.206   0.556  -8.678  0.00  0.00    +0.000 OA
ATOM      3  C3' NEC     0      -2.315   1.829  -6.702  0.00  0.00    +0.000 C 
ATOM      4  C2' NEC     0      -1.860   2.777  -7.840  0.00  0.00    +0.000 C 
ATOM      5  C1' NEC     0      -1.781   1.868  -9.081  0.00  0.00    +0.000 C 
ENDROOT
BRANCH   5   6
ATOM      6  N9  NEC     0      -2.665   2.378 -10.131  0.00  0.00    +0.000 N 
ATOM      7  C8  NEC     0      -3.927   1.943 -10.404  0.00  0.00    +0.000 A 
ATOM      8  N7  NEC     0      -4.424   2.615 -11.402  0.00  0.00    +0.000 NA
ATOM      9  C5  NEC     0      -3.513   3.522 -11.832  0.00  0.00    +0.000 A 
ATOM     10  C6  NEC     0      -3.490   4.495 -12.846  0.00  0.00    +0.000 C 
ATOM     11  N1  NEC     0      -2.396   5.233 -12.989  0.00  0.00    +0.000 NA
ATOM     12  C2  NEC     0      -1.349   5.063 -12.204  0.00  0.00    +0.000 C 
ATOM     13  N3  NEC     0      -1.325   4.165 -11.242  0.00  0.00    +0.000 N 
ATOM     14  C4  NEC     0      -2.377   3.384 -11.019  0.00  0.00    +0.000 A 
ATOM     15  H   NEC     0      -0.521   4.071 -10.683  0.00  0.00    +0.000 HD
BRANCH  10  16
ATOM     16  N6  NEC     0      -4.584   4.680 -13.674  0.00  0.00    +0.000 NA
ATOM     17 HN61 NEC     0      -4.571   4.333 -14.579  0.00  0.00    +0.000 HD
ATOM     18 HN62 NEC     0      -5.363   5.157 -13.347  0.00  0.00    +0.000 HD
ENDBRANCH  10  16
ENDBRANCH   5   6
BRANCH   1  19
ATOM     19  C5' NEC     0      -2.779  -0.641  -6.647  0.00  0.00    +0.000 C 
ATOM     20  O5' NEC     0      -3.950  -0.737  -6.949  0.00  0.00    +0.000 OA
ATOM     21  N5' NEC     0      -2.238  -1.499  -5.760  0.00  0.00    +0.000 N 
ATOM     22  HN5 NEC     0      -1.303  -1.422  -5.520  0.00  0.00    +0.000 HD
BRANCH  21  23
ATOM     23  C51 NEC     0      -3.065  -2.548  -5.160  0.00  0.00    +0.000 C 
ATOM     24  C52 NEC     0      -2.311  -3.186  -3.991  0.00  0.00    +0.000 C 
ENDBRANCH  21  23
ENDBRANCH   1  19
BRANCH   3  25
ATOM     25  O3' NEC     0      -1.608   2.108  -5.492  0.00  0.00    +0.000 OA
ATOM     26 HO3' NEC     0      -0.814   2.601  -5.739  0.00  0.00    +0.000 HD
ENDBRANCH   3  25
BRANCH   4  27
ATOM     27  O2' NEC     0      -0.577   3.333  -7.544  0.00  0.00    +0.000 OA
ATOM     28 HO2' NEC     0       0.069   2.839  -8.068  0.00  0.00    +0.000 HD
ENDBRANCH   4  27
TORSDOF 6
