REMARK VINA RESULT:      -6.7      1.840      2.338
REMARK  Name = NGI.pdb
REMARK  14 active torsions:
REMARK  status: ('A' for Active; 'I' for Inactive)
REMARK    1  A    between atoms: C1_1  and  C2_4
REMARK    2  A    between atoms: N1_2  and  C2_4
REMARK    3  A    between atoms: N2_5  and  C5_13
REMARK    4  A    between atoms: C3_7  and  C4_10
REMARK    5  A    between atoms: O3_9  and  C6_16
REMARK    6  A    between atoms: N4_11  and  C10_23
REMARK    7  A    between atoms: O4_12  and  C7_19
REMARK    8  A    between atoms: O5_15  and  C20_33
REMARK    9  A    between atoms: N6_17  and  C12_25
REMARK   10  A    between atoms: C12_25  and  C13_26
REMARK   11  A    between atoms: C13_26  and  C14_27
REMARK   12  A    between atoms: C17_30  and  C18_31
REMARK   13  A    between atoms: C18_31  and  C19_32
REMARK   14  A    between atoms: C19_32  and  C20_33
REMARK                            x       y       z     vdW  Elec       q    Type
REMARK                         _______ _______ _______ _____ _____    ______ ____
ROOT
ATOM      1  N2  NGI     0      -3.313   5.558 -13.481  0.00  0.00    +0.000 N 
ATOM      2  N3  NGI     0      -2.252   7.086 -12.338  0.00  0.00    +0.000 NA
ATOM      3  N5  NGI     0      -1.567   4.295 -10.047  0.00  0.00    +0.000 NA
ATOM      4  N6  NGI     0      -2.263   2.081 -10.310  0.00  0.00    +0.000 N 
ATOM      5  N7  NGI     0      -2.820   3.689 -11.904  0.00  0.00    +0.000 N 
ATOM      6  C8  NGI     0      -2.954   6.872 -13.413  0.00  0.00    +0.000 A 
ATOM      7  C9  NGI     0      -2.124   5.927 -11.647  0.00  0.00    +0.000 A 
ATOM      8  C10 NGI     0      -1.491   5.560 -10.445  0.00  0.00    +0.000 C 
ATOM      9  C11 NGI     0      -2.212   3.387 -10.769  0.00  0.00    +0.000 C 
ATOM     10  C23 NGI     0      -2.799   4.933 -12.372  0.00  0.00    +0.000 A 
ATOM     11  HN6 NGI     0      -2.729   1.405 -10.823  0.00  0.00    +0.000 HD
ATOM     12  H   NGI     0      -3.291   2.986 -12.407  0.00  0.00    +0.000 HD
ENDROOT
BRANCH   1  15
ATOM     13  O2  NGI     0      -3.851   5.573 -15.809  0.00  0.00    +0.000 OA
ATOM     14  C4  NGI     0      -4.988   5.247 -16.636  0.00  0.00    +0.000 C 
ATOM     15  C5  NGI     0      -4.106   4.930 -14.540  0.00  0.00    +0.000 C 
ATOM     16  C6  NGI     0      -5.614   5.147 -14.284  0.00  0.00    +0.000 C 
ATOM     17  C7  NGI     0      -6.207   5.361 -15.695  0.00  0.00    +0.000 C 
BRANCH  14  20
ATOM     18  N1  NGI     0      -4.737   7.512 -17.598  0.00  0.00    +0.000 N 
ATOM     19  O1  NGI     0      -5.544   5.864 -18.845  0.00  0.00    +0.000 OA
ATOM     20  C3  NGI     0      -5.109   6.229 -17.773  0.00  0.00    +0.000 C 
ATOM     21  HN1 NGI     0      -4.390   7.804 -16.740  0.00  0.00    +0.000 HD
BRANCH  18  23
ATOM     22  C1  NGI     0      -6.306   8.941 -18.812  0.00  0.00    +0.000 C 
ATOM     23  C2  NGI     0      -4.856   8.466 -18.703  0.00  0.00    +0.000 C 
ENDBRANCH  18  23
ENDBRANCH  14  20
BRANCH  16  24
ATOM     24  O3  NGI     0      -6.189   3.993 -13.668  0.00  0.00    +0.000 OA
ATOM     25  HO3 NGI     0      -7.048   3.740 -14.033  0.00  0.00    +0.000 HD
ENDBRANCH  16  24
BRANCH  17  26
ATOM     26  O4  NGI     0      -7.167   4.345 -15.993  0.00  0.00    +0.000 OA
ATOM     27  HO4 NGI     0      -8.042   4.686 -16.224  0.00  0.00    +0.000 HD
ENDBRANCH  17  26
ENDBRANCH   1  15
BRANCH   8  28
ATOM     28  N4  NGI     0      -0.804   6.497  -9.695  0.00  0.00    +0.000 NA
ATOM     29  HN4 NGI     0      -0.551   7.345 -10.092  0.00  0.00    +0.000 HD
ATOM     30 HN4A NGI     0      -0.573   6.307  -8.772  0.00  0.00    +0.000 HD
ENDBRANCH   8  28
BRANCH   4  31
ATOM     31  C12 NGI     0      -1.611   1.722  -9.048  0.00  0.00    +0.000 C 
BRANCH  31  32
ATOM     32  C13 NGI     0      -2.616   1.843  -7.901  0.00  0.00    +0.000 C 
BRANCH  32  33
ATOM     33  C14 NGI     0      -2.748   0.513  -7.206  0.00  0.00    +0.000 A 
ATOM     34  C15 NGI     0      -1.709  -0.397  -7.253  0.00  0.00    +0.000 A 
ATOM     35  C16 NGI     0      -1.831  -1.619  -6.616  0.00  0.00    +0.000 A 
ATOM     36  C17 NGI     0      -2.992  -1.929  -5.933  0.00  0.00    +0.000 A 
ATOM     37  C21 NGI     0      -4.031  -1.019  -5.886  0.00  0.00    +0.000 A 
ATOM     38  C22 NGI     0      -3.907   0.204  -6.517  0.00  0.00    +0.000 A 
BRANCH  36  39
ATOM     39  C18 NGI     0      -3.124  -3.260  -5.238  0.00  0.00    +0.000 C 
BRANCH  39  40
ATOM     40  C19 NGI     0      -1.780  -3.647  -4.619  0.00  0.00    +0.000 C 
BRANCH  40  42
ATOM     41  O6  NGI     0      -0.979  -4.049  -2.439  0.00  0.00    +0.000 OA
ATOM     42  C20 NGI     0      -1.940  -3.800  -3.128  0.00  0.00    +0.000 C 
BRANCH  42  43
ATOM     43  O5  NGI     0      -3.150  -3.658  -2.565  0.00  0.00    +0.000 OA
ATOM     44  HO5 NGI     0      -3.900  -3.534  -3.163  0.00  0.00    +0.000 HD
ENDBRANCH  42  43
ENDBRANCH  40  42
ENDBRANCH  39  40
ENDBRANCH  36  39
ENDBRANCH  32  33
ENDBRANCH  31  32
ENDBRANCH   4  31
TORSDOF 13
