REMARK VINA RESULT:      -6.8      1.446      2.322
REMARK  Name = ADN.pdb
REMARK  6 active torsions:
REMARK  status: ('A' for Active; 'I' for Inactive)
REMARK    1  A    between atoms: O5'_1  and  C5'_2
REMARK    2  A    between atoms: C5'_2  and  C4'_3
REMARK    3  A    between atoms: C3'_5  and  O3'_6
REMARK    4  A    between atoms: C2'_7  and  O2'_8
REMARK    5  A    between atoms: C1'_9  and  N9_10
REMARK    6  A    between atoms: C6_14  and  N6_15
REMARK                            x       y       z     vdW  Elec       q    Type
REMARK                         _______ _______ _______ _____ _____    ______ ____
ROOT
ATOM      1  N9  ADN     0      -3.777   0.466  -8.994  0.00  0.00    +0.000 N 
ATOM      2  C8  ADN     0      -4.791  -0.436  -8.864  0.00  0.00    +0.000 A 
ATOM      3  N7  ADN     0      -5.716  -0.196  -9.748  0.00  0.00    +0.000 NA
ATOM      4  C5  ADN     0      -5.356   0.875 -10.497  0.00  0.00    +0.000 A 
ATOM      5  C6  ADN     0      -5.936   1.567 -11.574  0.00  0.00    +0.000 C 
ATOM      6  N1  ADN     0      -5.282   2.602 -12.087  0.00  0.00    +0.000 NA
ATOM      7  C2  ADN     0      -4.110   2.976 -11.607  0.00  0.00    +0.000 C 
ATOM      8  N3  ADN     0      -3.525   2.355 -10.604  0.00  0.00    +0.000 N 
ATOM      9  C4  ADN     0      -4.106   1.308 -10.026  0.00  0.00    +0.000 A 
ATOM     10  H   ADN     0      -2.651   2.668 -10.279  0.00  0.00    +0.000 HD
ENDROOT
BRANCH   1  15
ATOM     11  C4' ADN     0      -1.530  -0.327  -6.316  0.00  0.00    +0.000 C 
ATOM     12  O4' ADN     0      -2.424  -0.678  -7.395  0.00  0.00    +0.000 OA
ATOM     13  C3' ADN     0      -1.964   1.092  -5.892  0.00  0.00    +0.000 C 
ATOM     14  C2' ADN     0      -2.656   1.666  -7.151  0.00  0.00    +0.000 C 
ATOM     15  C1' ADN     0      -2.560   0.523  -8.184  0.00  0.00    +0.000 C 
BRANCH  13  16
ATOM     16  O3' ADN     0      -0.824   1.881  -5.542  0.00  0.00    +0.000 OA
ATOM     17 HO3' ADN     0      -0.830   1.967  -4.579  0.00  0.00    +0.000 HD
ENDBRANCH  13  16
BRANCH  14  18
ATOM     18  O2' ADN     0      -1.966   2.828  -7.614  0.00  0.00    +0.000 OA
ATOM     19 HO2' ADN     0      -2.222   3.558  -7.034  0.00  0.00    +0.000 HD
ENDBRANCH  14  18
BRANCH  11  20
ATOM     20  C5' ADN     0      -1.690  -1.306  -5.151  0.00  0.00    +0.000 C 
BRANCH  20  21
ATOM     21  O5' ADN     0      -1.001  -2.521  -5.452  0.00  0.00    +0.000 OA
ATOM     22 HO5' ADN     0      -0.264  -2.586  -4.829  0.00  0.00    +0.000 HD
ENDBRANCH  20  21
ENDBRANCH  11  20
ENDBRANCH   1  15
BRANCH   5  23
ATOM     23  N6  ADN     0      -7.163   1.183 -12.084  0.00  0.00    +0.000 NA
ATOM     24 HN61 ADN     0      -7.559   1.677 -12.819  0.00  0.00    +0.000 HD
ATOM     25 HN62 ADN     0      -7.627   0.417 -11.709  0.00  0.00    +0.000 HD
ENDBRANCH   5  23
TORSDOF 6
