REMARK VINA RESULT:      -5.9      7.388     10.084
REMARK  Name = NEC.pdb
REMARK  7 active torsions:
REMARK  status: ('A' for Active; 'I' for Inactive)
REMARK    1  A    between atoms: C5'_1  and  C4'_6
REMARK    2  A    between atoms: N5'_3  and  C51_4
REMARK    3  A    between atoms: C51_4  and  C52_5
REMARK    4  A    between atoms: C3'_8  and  O3'_9
REMARK    5  A    between atoms: C2'_10  and  O2'_11
REMARK    6  A    between atoms: C1'_12  and  N9_13
REMARK    7  A    between atoms: C6_17  and  N6_18
REMARK                            x       y       z     vdW  Elec       q    Type
REMARK                         _______ _______ _______ _____ _____    ______ ____
ROOT
ATOM      1  C4' NEC     0      -4.491   5.569 -13.835  0.00  0.00    +0.000 C 
ATOM      2  O4' NEC     0      -4.490   6.545 -14.898  0.00  0.00    +0.000 OA
ATOM      3  C3' NEC     0      -5.045   4.291 -14.514  0.00  0.00    +0.000 C 
ATOM      4  C2' NEC     0      -6.109   4.874 -15.478  0.00  0.00    +0.000 C 
ATOM      5  C1' NEC     0      -5.697   6.348 -15.651  0.00  0.00    +0.000 C 
ENDROOT
BRANCH   5   6
ATOM      6  N9  NEC     0      -5.455   6.638 -17.065  0.00  0.00    +0.000 N 
ATOM      7  C8  NEC     0      -5.611   5.770 -18.104  0.00  0.00    +0.000 A 
ATOM      8  N7  NEC     0      -5.308   6.359 -19.226  0.00  0.00    +0.000 NA
ATOM      9  C5  NEC     0      -4.941   7.639 -18.977  0.00  0.00    +0.000 A 
ATOM     10  C6  NEC     0      -4.523   8.719 -19.773  0.00  0.00    +0.000 C 
ATOM     11  N1  NEC     0      -4.235   9.870 -19.177  0.00  0.00    +0.000 NA
ATOM     12  C2  NEC     0      -4.334  10.005 -17.868  0.00  0.00    +0.000 C 
ATOM     13  N3  NEC     0      -4.720   9.022 -17.083  0.00  0.00    +0.000 N 
ATOM     14  C4  NEC     0      -5.037   7.834 -17.590  0.00  0.00    +0.000 A 
ATOM     15  H   NEC     0      -4.776   9.167 -16.111  0.00  0.00    +0.000 HD
BRANCH  10  16
ATOM     16  N6  NEC     0      -4.417   8.587 -21.147  0.00  0.00    +0.000 NA
ATOM     17 HN61 NEC     0      -4.676   7.757 -21.576  0.00  0.00    +0.000 HD
ATOM     18 HN62 NEC     0      -4.085   9.326 -21.680  0.00  0.00    +0.000 HD
ENDBRANCH  10  16
ENDBRANCH   5   6
BRANCH   1  19
ATOM     19  C5' NEC     0      -3.092   5.335 -13.326  0.00  0.00    +0.000 C 
ATOM     20  O5' NEC     0      -2.164   5.957 -13.799  0.00  0.00    +0.000 OA
ATOM     21  N5' NEC     0      -2.873   4.436 -12.347  0.00  0.00    +0.000 N 
ATOM     22  HN5 NEC     0      -3.614   3.940 -11.969  0.00  0.00    +0.000 HD
BRANCH  21  23
ATOM     23  C51 NEC     0      -1.513   4.210 -11.852  0.00  0.00    +0.000 C 
ATOM     24  C52 NEC     0      -1.326   4.943 -10.522  0.00  0.00    +0.000 C 
ENDBRANCH  21  23
ENDBRANCH   1  19
BRANCH   3  25
ATOM     25  O3' NEC     0      -5.648   3.418 -13.556  0.00  0.00    +0.000 OA
ATOM     26 HO3' NEC     0      -6.462   3.849 -13.259  0.00  0.00    +0.000 HD
ENDBRANCH   3  25
BRANCH   4  27
ATOM     27  O2' NEC     0      -7.413   4.783 -14.899  0.00  0.00    +0.000 OA
ATOM     28 HO2' NEC     0      -7.790   3.942 -15.192  0.00  0.00    +0.000 HD
ENDBRANCH   4  27
TORSDOF 6
