REMARK VINA RESULT:      -6.0      6.599      9.102
REMARK  Name = NEC.pdb
REMARK  7 active torsions:
REMARK  status: ('A' for Active; 'I' for Inactive)
REMARK    1  A    between atoms: C5'_1  and  C4'_6
REMARK    2  A    between atoms: N5'_3  and  C51_4
REMARK    3  A    between atoms: C51_4  and  C52_5
REMARK    4  A    between atoms: C3'_8  and  O3'_9
REMARK    5  A    between atoms: C2'_10  and  O2'_11
REMARK    6  A    between atoms: C1'_12  and  N9_13
REMARK    7  A    between atoms: C6_17  and  N6_18
REMARK                            x       y       z     vdW  Elec       q    Type
REMARK                         _______ _______ _______ _____ _____    ______ ____
ROOT
ATOM      1  C4' NEC     0      -4.309   4.209 -14.085  0.00  0.00    +0.000 C 
ATOM      2  O4' NEC     0      -5.395   4.163 -15.035  0.00  0.00    +0.000 OA
ATOM      3  C3' NEC     0      -4.229   5.707 -13.695  0.00  0.00    +0.000 C 
ATOM      4  C2' NEC     0      -4.549   6.407 -15.040  0.00  0.00    +0.000 C 
ATOM      5  C1' NEC     0      -5.277   5.329 -15.865  0.00  0.00    +0.000 C 
ENDROOT
BRANCH   5   6
ATOM      6  N9  NEC     0      -6.607   5.805 -16.249  0.00  0.00    +0.000 N 
ATOM      7  C8  NEC     0      -7.797   5.338 -15.779  0.00  0.00    +0.000 A 
ATOM      8  N7  NEC     0      -8.781   5.986 -16.333  0.00  0.00    +0.000 NA
ATOM      9  C5  NEC     0      -8.284   6.909 -17.192  0.00  0.00    +0.000 A 
ATOM     10  C6  NEC     0      -8.851   7.870 -18.046  0.00  0.00    +0.000 C 
ATOM     11  N1  NEC     0      -8.039   8.633 -18.769  0.00  0.00    +0.000 NA
ATOM     12  C2  NEC     0      -6.728   8.497 -18.694  0.00  0.00    +0.000 C 
ATOM     13  N3  NEC     0      -6.153   7.611 -17.909  0.00  0.00    +0.000 N 
ATOM     14  C4  NEC     0      -6.885   6.808 -17.144  0.00  0.00    +0.000 A 
ATOM     15  H   NEC     0      -5.171   7.542 -17.889  0.00  0.00    +0.000 HD
BRANCH  10  16
ATOM     16  N6  NEC     0     -10.224   8.020 -18.130  0.00  0.00    +0.000 NA
ATOM     17 HN61 NEC     0     -10.795   7.239 -18.205  0.00  0.00    +0.000 HD
ATOM     18 HN62 NEC     0     -10.617   8.907 -18.113  0.00  0.00    +0.000 HD
ENDBRANCH  10  16
ENDBRANCH   5   6
BRANCH   1  19
ATOM     19  C5' NEC     0      -4.623   3.363 -12.878  0.00  0.00    +0.000 C 
ATOM     20  O5' NEC     0      -5.678   2.767 -12.814  0.00  0.00    +0.000 OA
ATOM     21  N5' NEC     0      -3.732   3.267 -11.872  0.00  0.00    +0.000 N 
ATOM     22  HN5 NEC     0      -2.889   3.743 -11.924  0.00  0.00    +0.000 HD
BRANCH  21  23
ATOM     23  C51 NEC     0      -4.037   2.444 -10.700  0.00  0.00    +0.000 C 
ATOM     24  C52 NEC     0      -2.758   2.211  -9.893  0.00  0.00    +0.000 C 
ENDBRANCH  21  23
ENDBRANCH   1  19
BRANCH   3  25
ATOM     25  O3' NEC     0      -2.919   6.051 -13.240  0.00  0.00    +0.000 OA
ATOM     26 HO3' NEC     0      -2.743   6.951 -13.548  0.00  0.00    +0.000 HD
ENDBRANCH   3  25
BRANCH   4  27
ATOM     27  O2' NEC     0      -3.343   6.810 -15.693  0.00  0.00    +0.000 OA
ATOM     28 HO2' NEC     0      -3.449   7.743 -15.924  0.00  0.00    +0.000 HD
ENDBRANCH   4  27
TORSDOF 6
