MODEL 1
REMARK VINA RESULT:     -10.3      0.000      0.000
REMARK  Name = 118734340.pdb
REMARK  7 active torsions:
REMARK  status: ('A' for Active; 'I' for Inactive)
REMARK    1  A    between atoms: N_5  and  C_15
REMARK    2  A    between atoms: N_6  and  C_24
REMARK    3  A    between atoms: N_7  and  C_28
REMARK    4  A    between atoms: N_8  and  C_31
REMARK    5  A    between atoms: N_11  and  C_27
REMARK    6  A    between atoms: C_17  and  C_22
REMARK    7  A    between atoms: C_24  and  C_27
REMARK                            x       y       z     vdW  Elec       q    Type
REMARK                         _______ _______ _______ _____ _____    ______ ____
ROOT
ATOM      1  N   LIG     1     -29.439   8.294 -23.723  0.00  0.00    +0.000 N 
ATOM      2  N   LIG     1     -28.882   6.416 -24.789  0.00  0.00    +0.000 NA
ATOM      3  N   LIG     1     -30.021   7.382 -21.549  0.00  0.00    +0.000 NA
ATOM      4  N   LIG     1     -30.479   6.141 -19.647  0.00  0.00    +0.000 NA
ATOM      5  N   LIG     1     -29.753   4.957 -21.504  0.00  0.00    +0.000 NA
ATOM      6  N   LIG     1     -29.004   3.711 -23.406  0.00  0.00    +0.000 NA
ATOM      7  C   LIG     1     -29.607   7.283 -22.820  0.00  0.00    +0.000 A 
ATOM      8  C   LIG     1     -29.003   7.724 -24.890  0.00  0.00    +0.000 A 
ATOM      9  C   LIG     1     -29.256   6.127 -23.500  0.00  0.00    +0.000 A 
ATOM     10  C   LIG     1     -30.062   6.163 -20.969  0.00  0.00    +0.000 A 
ATOM     11  C   LIG     1     -29.340   4.932 -22.794  0.00  0.00    +0.000 A 
ENDROOT
BRANCH   1  16
ATOM     12  O   LIG     1     -30.509  10.317 -24.538  0.00  0.00    +0.000 OA
ATOM     13  O   LIG     1     -27.765  10.579 -22.236  0.00  0.00    +0.000 OA
ATOM     14  O   LIG     1     -29.485  12.621 -22.740  0.00  0.00    +0.000 OA
ATOM     15  C   LIG     1     -28.410  10.596 -23.493  0.00  0.00    +0.000 C 
ATOM     16  C   LIG     1     -29.686   9.765 -23.492  0.00  0.00    +0.000 C 
ATOM     17  C   LIG     1     -28.925  11.969 -23.879  0.00  0.00    +0.000 C 
ATOM     18  C   LIG     1     -30.043  11.637 -24.852  0.00  0.00    +0.000 C 
BRANCH  18  21
ATOM     19  O   LIG     1     -29.527  10.532 -26.901  0.00  0.00    +0.000 OA
ATOM     20  N   LIG     1     -29.192  12.831 -26.741  0.00  0.00    +0.000 NA
ATOM     21  C   LIG     1     -29.573  11.586 -26.270  0.00  0.00    +0.000 C 
BRANCH  20  22
ATOM     22  C   LIG     1     -28.679  13.049 -28.075  0.00  0.00    +0.000 C 
ATOM     23  C   LIG     1     -29.418  14.169 -28.777  0.00  0.00    +0.000 C 
ENDBRANCH  20  22
ENDBRANCH  18  21
ENDBRANCH   1  16
BRANCH   4  24
ATOM     24  C   LIG     1     -30.852   7.321 -18.906  0.00  0.00    +0.000 C 
BRANCH  24  25
ATOM     25  C   LIG     1     -31.158   6.945 -17.462  0.00  0.00    +0.000 C 
BRANCH  25  26
ATOM     26  N   LIG     1     -31.026   5.500 -17.274  0.00  0.00    +0.000 NA
ATOM     27  N   LIG     1     -31.294   3.017 -15.889  0.00  0.00    +0.000 N 
ATOM     28  C   LIG     1     -30.185   5.207 -16.107  0.00  0.00    +0.000 C 
ATOM     29  C   LIG     1     -32.347   4.881 -17.106  0.00  0.00    +0.000 C 
ATOM     30  C   LIG     1     -29.994   3.699 -15.933  0.00  0.00    +0.000 C 
ATOM     31  C   LIG     1     -32.229   3.361 -16.964  0.00  0.00    +0.000 C 
BRANCH  27  32
ATOM     32  C   LIG     1     -31.351   1.748 -15.301  0.00  0.00    +0.000 A 
ATOM     33  C   LIG     1     -31.807   0.656 -16.039  0.00  0.00    +0.000 A 
ATOM     34  C   LIG     1     -30.951   1.575 -13.975  0.00  0.00    +0.000 A 
ATOM     35  C   LIG     1     -31.865  -0.608 -15.452  0.00  0.00    +0.000 A 
ATOM     36  C   LIG     1     -31.008   0.311 -13.389  0.00  0.00    +0.000 A 
ATOM     37  C   LIG     1     -31.465  -0.780 -14.127  0.00  0.00    +0.000 A 
ENDBRANCH  27  32
ENDBRANCH  25  26
ENDBRANCH  24  25
ENDBRANCH   4  24
TORSDOF 7
ENDMDL
MODEL 2
REMARK VINA RESULT:      -8.6      2.076      3.490
REMARK  Name = 118734340.pdb
REMARK  7 active torsions:
REMARK  status: ('A' for Active; 'I' for Inactive)
REMARK    1  A    between atoms: N_5  and  C_15
REMARK    2  A    between atoms: N_6  and  C_24
REMARK    3  A    between atoms: N_7  and  C_28
REMARK    4  A    between atoms: N_8  and  C_31
REMARK    5  A    between atoms: N_11  and  C_27
REMARK    6  A    between atoms: C_17  and  C_22
REMARK    7  A    between atoms: C_24  and  C_27
REMARK                            x       y       z     vdW  Elec       q    Type
REMARK                         _______ _______ _______ _____ _____    ______ ____
ROOT
ATOM      1  N   LIG     1     -29.116   8.002 -23.423  0.00  0.00    +0.000 N 
ATOM      2  N   LIG     1     -28.984   6.163 -24.676  0.00  0.00    +0.000 NA
ATOM      3  N   LIG     1     -29.867   7.027 -21.330  0.00  0.00    +0.000 NA
ATOM      4  N   LIG     1     -30.571   5.731 -19.542  0.00  0.00    +0.000 NA
ATOM      5  N   LIG     1     -30.129   4.608 -21.522  0.00  0.00    +0.000 NA
ATOM      6  N   LIG     1     -29.679   3.424 -23.553  0.00  0.00    +0.000 NA
ATOM      7  C   LIG     1     -29.493   6.967 -22.616  0.00  0.00    +0.000 A 
ATOM      8  C   LIG     1     -28.820   7.470 -24.650  0.00  0.00    +0.000 A 
ATOM      9  C   LIG     1     -29.404   5.835 -23.411  0.00  0.00    +0.000 A 
ATOM     10  C   LIG     1     -30.168   5.794 -20.867  0.00  0.00    +0.000 A 
ATOM     11  C   LIG     1     -29.740   4.622 -22.819  0.00  0.00    +0.000 A 
ENDROOT
BRANCH   1  16
ATOM     12  O   LIG     1     -28.704   9.614 -21.652  0.00  0.00    +0.000 OA
ATOM     13  O   LIG     1     -30.535  10.630 -24.570  0.00  0.00    +0.000 OA
ATOM     14  O   LIG     1     -29.420  12.389 -22.827  0.00  0.00    +0.000 OA
ATOM     15  C   LIG     1     -30.355  10.202 -23.235  0.00  0.00    +0.000 C 
ATOM     16  C   LIG     1     -29.037   9.461 -23.046  0.00  0.00    +0.000 C 
ATOM     17  C   LIG     1     -30.217  11.352 -22.256  0.00  0.00    +0.000 C 
ATOM     18  C   LIG     1     -29.447  10.715 -21.112  0.00  0.00    +0.000 C 
BRANCH  18  21
ATOM     19  O   LIG     1     -29.906   9.647 -19.031  0.00  0.00    +0.000 OA
ATOM     20  N   LIG     1     -31.682  10.210 -20.427  0.00  0.00    +0.000 NA
ATOM     21  C   LIG     1     -30.347  10.138 -20.067  0.00  0.00    +0.000 C 
BRANCH  20  22
ATOM     22  C   LIG     1     -32.753   9.701 -19.600  0.00  0.00    +0.000 C 
ATOM     23  C   LIG     1     -34.069  10.378 -19.917  0.00  0.00    +0.000 C 
ENDBRANCH  20  22
ENDBRANCH  18  21
ENDBRANCH   1  16
BRANCH   4  24
ATOM     24  C   LIG     1     -30.676   6.886 -18.682  0.00  0.00    +0.000 C 
BRANCH  24  25
ATOM     25  C   LIG     1     -31.040   6.443 -17.271  0.00  0.00    +0.000 C 
BRANCH  25  26
ATOM     26  N   LIG     1     -30.867   4.997 -17.132  0.00  0.00    +0.000 NA
ATOM     27  N   LIG     1     -30.950   2.480 -15.784  0.00  0.00    +0.000 N 
ATOM     28  C   LIG     1     -29.904   4.694 -16.065  0.00  0.00    +0.000 C 
ATOM     29  C   LIG     1     -32.153   4.351 -16.841  0.00  0.00    +0.000 C 
ATOM     30  C   LIG     1     -29.672   3.186 -15.947  0.00  0.00    +0.000 C 
ATOM     31  C   LIG     1     -31.997   2.831 -16.748  0.00  0.00    +0.000 C 
BRANCH  27  32
ATOM     32  C   LIG     1     -30.925   1.199 -15.223  0.00  0.00    +0.000 A 
ATOM     33  C   LIG     1     -31.250   1.019 -13.878  0.00  0.00    +0.000 A 
ATOM     34  C   LIG     1     -30.575   0.100 -16.008  0.00  0.00    +0.000 A 
ATOM     35  C   LIG     1     -31.223  -0.258 -13.318  0.00  0.00    +0.000 A 
ATOM     36  C   LIG     1     -30.549  -1.178 -15.448  0.00  0.00    +0.000 A 
ATOM     37  C   LIG     1     -30.873  -1.356 -14.103  0.00  0.00    +0.000 A 
ENDBRANCH  27  32
ENDBRANCH  25  26
ENDBRANCH  24  25
ENDBRANCH   4  24
TORSDOF 7
ENDMDL
MODEL 3
REMARK VINA RESULT:      -8.3      1.985      3.331
REMARK  Name = 118734340.pdb
REMARK  7 active torsions:
REMARK  status: ('A' for Active; 'I' for Inactive)
REMARK    1  A    between atoms: N_5  and  C_15
REMARK    2  A    between atoms: N_6  and  C_24
REMARK    3  A    between atoms: N_7  and  C_28
REMARK    4  A    between atoms: N_8  and  C_31
REMARK    5  A    between atoms: N_11  and  C_27
REMARK    6  A    between atoms: C_17  and  C_22
REMARK    7  A    between atoms: C_24  and  C_27
REMARK                            x       y       z     vdW  Elec       q    Type
REMARK                         _______ _______ _______ _____ _____    ______ ____
ROOT
ATOM      1  N   LIG     1     -29.825   9.777 -22.302  0.00  0.00    +0.000 N 
ATOM      2  N   LIG     1     -31.090  10.980 -20.915  0.00  0.00    +0.000 NA
ATOM      3  N   LIG     1     -29.976   7.606 -21.225  0.00  0.00    +0.000 NA
ATOM      4  N   LIG     1     -30.363   5.732 -19.918  0.00  0.00    +0.000 NA
ATOM      5  N   LIG     1     -31.364   7.704 -19.220  0.00  0.00    +0.000 NA
ATOM      6  N   LIG     1     -32.410   9.725 -18.480  0.00  0.00    +0.000 NA
ATOM      7  C   LIG     1     -30.252   8.913 -21.334  0.00  0.00    +0.000 A 
ATOM      8  C   LIG     1     -30.355  11.006 -22.007  0.00  0.00    +0.000 A 
ATOM      9  C   LIG     1     -31.035   9.678 -20.484  0.00  0.00    +0.000 A 
ATOM     10  C   LIG     1     -30.578   7.085 -20.134  0.00  0.00    +0.000 A 
ATOM     11  C   LIG     1     -31.602   9.026 -19.393  0.00  0.00    +0.000 A 
ENDROOT
BRANCH   1  16
ATOM     12  O   LIG     1     -28.310  10.644 -23.991  0.00  0.00    +0.000 OA
ATOM     13  O   LIG     1     -29.884   7.458 -24.504  0.00  0.00    +0.000 OA
ATOM     14  O   LIG     1     -27.709   8.286 -25.905  0.00  0.00    +0.000 OA
ATOM     15  C   LIG     1     -29.694   8.850 -24.654  0.00  0.00    +0.000 C 
ATOM     16  C   LIG     1     -28.937   9.452 -23.478  0.00  0.00    +0.000 C 
ATOM     17  C   LIG     1     -28.797   9.204 -25.824  0.00  0.00    +0.000 C 
ATOM     18  C   LIG     1     -28.260  10.567 -25.422  0.00  0.00    +0.000 C 
BRANCH  18  21
ATOM     19  O   LIG     1     -29.742  12.416 -25.171  0.00  0.00    +0.000 OA
ATOM     20  N   LIG     1     -29.088  11.776 -27.312  0.00  0.00    +0.000 NA
ATOM     21  C   LIG     1     -29.105  11.690 -25.930  0.00  0.00    +0.000 C 
BRANCH  20  22
ATOM     22  C   LIG     1     -29.841  12.763 -28.052  0.00  0.00    +0.000 C 
ATOM     23  C   LIG     1     -28.978  13.948 -28.433  0.00  0.00    +0.000 C 
ENDBRANCH  20  22
ENDBRANCH  18  21
ENDBRANCH   1  16
BRANCH   4  24
ATOM     24  C   LIG     1     -29.555   4.903 -20.779  0.00  0.00    +0.000 C 
BRANCH  24  25
ATOM     25  C   LIG     1     -29.844   3.435 -20.495  0.00  0.00    +0.000 C 
BRANCH  25  26
ATOM     26  N   LIG     1     -30.251   3.256 -19.102  0.00  0.00    +0.000 NA
ATOM     27  N   LIG     1     -30.980   1.781 -16.768  0.00  0.00    +0.000 N 
ATOM     28  C   LIG     1     -31.552   2.579 -19.029  0.00  0.00    +0.000 C 
ATOM     29  C   LIG     1     -29.243   2.482 -18.366  0.00  0.00    +0.000 C 
ATOM     30  C   LIG     1     -32.016   2.437 -17.577  0.00  0.00    +0.000 C 
ATOM     31  C   LIG     1     -29.630   2.335 -16.892  0.00  0.00    +0.000 C 
BRANCH  27  32
ATOM     32  C   LIG     1     -31.372   1.169 -15.572  0.00  0.00    +0.000 A 
ATOM     33  C   LIG     1     -32.224   0.065 -15.598  0.00  0.00    +0.000 A 
ATOM     34  C   LIG     1     -30.910   1.664 -14.352  0.00  0.00    +0.000 A 
ATOM     35  C   LIG     1     -32.615  -0.544 -14.405  0.00  0.00    +0.000 A 
ATOM     36  C   LIG     1     -31.301   1.054 -13.159  0.00  0.00    +0.000 A 
ATOM     37  C   LIG     1     -32.154  -0.049 -13.187  0.00  0.00    +0.000 A 
ENDBRANCH  27  32
ENDBRANCH  25  26
ENDBRANCH  24  25
ENDBRANCH   4  24
TORSDOF 7
ENDMDL
MODEL 4
REMARK VINA RESULT:      -7.7      1.565      2.123
REMARK  Name = 118734340.pdb
REMARK  7 active torsions:
REMARK  status: ('A' for Active; 'I' for Inactive)
REMARK    1  A    between atoms: N_5  and  C_15
REMARK    2  A    between atoms: N_6  and  C_24
REMARK    3  A    between atoms: N_7  and  C_28
REMARK    4  A    between atoms: N_8  and  C_31
REMARK    5  A    between atoms: N_11  and  C_27
REMARK    6  A    between atoms: C_17  and  C_22
REMARK    7  A    between atoms: C_24  and  C_27
REMARK                            x       y       z     vdW  Elec       q    Type
REMARK                         _______ _______ _______ _____ _____    ______ ____
ROOT
ATOM      1  N   LIG     1     -29.852   7.602 -22.676  0.00  0.00    +0.000 N 
ATOM      2  N   LIG     1     -29.164   6.090 -24.162  0.00  0.00    +0.000 NA
ATOM      3  N   LIG     1     -30.191   6.166 -20.746  0.00  0.00    +0.000 NA
ATOM      4  N   LIG     1     -30.388   4.487 -19.162  0.00  0.00    +0.000 NA
ATOM      5  N   LIG     1     -29.659   3.842 -21.266  0.00  0.00    +0.000 NA
ATOM      6  N   LIG     1     -28.903   3.150 -23.430  0.00  0.00    +0.000 NA
ATOM      7  C   LIG     1     -29.851   6.403 -22.022  0.00  0.00    +0.000 A 
ATOM      8  C   LIG     1     -29.433   7.363 -23.958  0.00  0.00    +0.000 A 
ATOM      9  C   LIG     1     -29.421   5.478 -22.960  0.00  0.00    +0.000 A 
ATOM     10  C   LIG     1     -30.062   4.853 -20.460  0.00  0.00    +0.000 A 
ATOM     11  C   LIG     1     -29.330   4.154 -22.543  0.00  0.00    +0.000 A 
ENDROOT
BRANCH   1  16
ATOM     12  O   LIG     1     -30.728   9.820 -23.141  0.00  0.00    +0.000 OA
ATOM     13  O   LIG     1     -28.856   9.261 -20.128  0.00  0.00    +0.000 OA
ATOM     14  O   LIG     1     -30.446  11.430 -20.511  0.00  0.00    +0.000 OA
ATOM     15  C   LIG     1     -29.077   9.683 -21.458  0.00  0.00    +0.000 C 
ATOM     16  C   LIG     1     -30.242   8.944 -22.105  0.00  0.00    +0.000 C 
ATOM     17  C   LIG     1     -29.524  11.129 -21.557  0.00  0.00    +0.000 C 
ATOM     18  C   LIG     1     -30.262  11.152 -22.883  0.00  0.00    +0.000 C 
BRANCH  18  21
ATOM     19  O   LIG     1     -28.477  12.345 -23.919  0.00  0.00    +0.000 OA
ATOM     20  N   LIG     1     -29.700  10.820 -25.184  0.00  0.00    +0.000 NA
ATOM     21  C   LIG     1     -29.372  11.511 -24.030  0.00  0.00    +0.000 C 
BRANCH  20  22
ATOM     22  C   LIG     1     -29.006  11.002 -26.439  0.00  0.00    +0.000 C 
ATOM     23  C   LIG     1     -29.532  12.206 -27.193  0.00  0.00    +0.000 C 
ENDBRANCH  20  22
ENDBRANCH  18  21
ENDBRANCH   1  16
BRANCH   4  24
ATOM     24  C   LIG     1     -30.839   5.420 -18.157  0.00  0.00    +0.000 C 
BRANCH  24  25
ATOM     25  C   LIG     1     -32.252   5.058 -17.720  0.00  0.00    +0.000 C 
BRANCH  25  26
ATOM     26  N   LIG     1     -32.246   3.808 -16.962  0.00  0.00    +0.000 NA
ATOM     27  N   LIG     1     -31.162   1.342 -16.010  0.00  0.00    +0.000 N 
ATOM     28  C   LIG     1     -32.110   2.658 -17.866  0.00  0.00    +0.000 C 
ATOM     29  C   LIG     1     -31.150   3.804 -15.984  0.00  0.00    +0.000 C 
ATOM     30  C   LIG     1     -32.158   1.340 -17.089  0.00  0.00    +0.000 C 
ATOM     31  C   LIG     1     -31.165   2.524 -15.144  0.00  0.00    +0.000 C 
BRANCH  27  32
ATOM     32  C   LIG     1     -30.747   0.108 -15.497  0.00  0.00    +0.000 A 
ATOM     33  C   LIG     1     -30.034  -0.779 -16.304  0.00  0.00    +0.000 A 
ATOM     34  C   LIG     1     -31.048  -0.237 -14.179  0.00  0.00    +0.000 A 
ATOM     35  C   LIG     1     -29.622  -2.010 -15.793  0.00  0.00    +0.000 A 
ATOM     36  C   LIG     1     -30.635  -1.467 -13.668  0.00  0.00    +0.000 A 
ATOM     37  C   LIG     1     -29.923  -2.354 -14.475  0.00  0.00    +0.000 A 
ENDBRANCH  27  32
ENDBRANCH  25  26
ENDBRANCH  24  25
ENDBRANCH   4  24
TORSDOF 7
ENDMDL
MODEL 5
REMARK VINA RESULT:      -6.8     19.460     20.906
REMARK  Name = 118734340.pdb
REMARK  7 active torsions:
REMARK  status: ('A' for Active; 'I' for Inactive)
REMARK    1  A    between atoms: N_5  and  C_15
REMARK    2  A    between atoms: N_6  and  C_24
REMARK    3  A    between atoms: N_7  and  C_28
REMARK    4  A    between atoms: N_8  and  C_31
REMARK    5  A    between atoms: N_11  and  C_27
REMARK    6  A    between atoms: C_17  and  C_22
REMARK    7  A    between atoms: C_24  and  C_27
REMARK                            x       y       z     vdW  Elec       q    Type
REMARK                         _______ _______ _______ _____ _____    ______ ____
ROOT
ATOM      1  N   LIG     1     -29.342   9.726 -41.866  0.00  0.00    +0.000 N 
ATOM      2  N   LIG     1     -27.180   9.314 -42.222  0.00  0.00    +0.000 NA
ATOM      3  N   LIG     1     -30.250   7.498 -42.194  0.00  0.00    +0.000 NA
ATOM      4  N   LIG     1     -30.717   5.262 -42.580  0.00  0.00    +0.000 NA
ATOM      5  N   LIG     1     -28.492   5.895 -42.737  0.00  0.00    +0.000 NA
ATOM      6  N   LIG     1     -26.188   6.522 -42.904  0.00  0.00    +0.000 NA
ATOM      7  C   LIG     1     -29.252   8.392 -42.143  0.00  0.00    +0.000 A 
ATOM      8  C   LIG     1     -28.072  10.237 -41.925  0.00  0.00    +0.000 A 
ATOM      9  C   LIG     1     -27.903   8.156 -42.360  0.00  0.00    +0.000 A 
ATOM     10  C   LIG     1     -29.771   6.272 -42.499  0.00  0.00    +0.000 A 
ATOM     11  C   LIG     1     -27.534   6.851 -42.668  0.00  0.00    +0.000 A 
ENDROOT
BRANCH   1  16
ATOM     12  O   LIG     1     -30.582  11.786 -42.210  0.00  0.00    +0.000 OA
ATOM     13  O   LIG     1     -31.345   9.723 -39.372  0.00  0.00    +0.000 OA
ATOM     14  O   LIG     1     -33.007  11.666 -40.288  0.00  0.00    +0.000 OA
ATOM     15  C   LIG     1     -30.764  10.804 -40.070  0.00  0.00    +0.000 C 
ATOM     16  C   LIG     1     -30.597  10.503 -41.553  0.00  0.00    +0.000 C 
ATOM     17  C   LIG     1     -31.644  12.039 -40.093  0.00  0.00    +0.000 C 
ATOM     18  C   LIG     1     -31.154  12.767 -41.332  0.00  0.00    +0.000 C 
BRANCH  18  21
ATOM     19  O   LIG     1     -29.098  13.888 -41.778  0.00  0.00    +0.000 OA
ATOM     20  N   LIG     1     -30.268  14.406 -39.833  0.00  0.00    +0.000 NA
ATOM     21  C   LIG     1     -30.061  13.742 -41.030  0.00  0.00    +0.000 C 
BRANCH  20  22
ATOM     22  C   LIG     1     -29.346  15.385 -39.302  0.00  0.00    +0.000 C 
ATOM     23  C   LIG     1     -30.078  16.542 -38.655  0.00  0.00    +0.000 C 
ENDBRANCH  20  22
ENDBRANCH  18  21
ENDBRANCH   1  16
BRANCH   4  24
ATOM     24  C   LIG     1     -32.128   5.467 -42.361  0.00  0.00    +0.000 C 
BRANCH  24  25
ATOM     25  C   LIG     1     -32.506   4.988 -40.965  0.00  0.00    +0.000 C 
BRANCH  25  26
ATOM     26  N   LIG     1     -33.267   6.020 -40.262  0.00  0.00    +0.000 NA
ATOM     27  N   LIG     1     -35.512   7.711 -39.753  0.00  0.00    +0.000 N 
ATOM     28  C   LIG     1     -33.574   7.137 -41.164  0.00  0.00    +0.000 C 
ATOM     29  C   LIG     1     -34.511   5.461 -39.719  0.00  0.00    +0.000 C 
ATOM     30  C   LIG     1     -34.322   8.249 -40.425  0.00  0.00    +0.000 C 
ATOM     31  C   LIG     1     -35.292   6.517 -38.932  0.00  0.00    +0.000 C 
BRANCH  27  32
ATOM     32  C   LIG     1     -36.537   8.602 -39.420  0.00  0.00    +0.000 A 
ATOM     33  C   LIG     1     -36.630   9.834 -40.070  0.00  0.00    +0.000 A 
ATOM     34  C   LIG     1     -37.468   8.261 -38.439  0.00  0.00    +0.000 A 
ATOM     35  C   LIG     1     -37.652  10.723 -39.736  0.00  0.00    +0.000 A 
ATOM     36  C   LIG     1     -38.490   9.150 -38.107  0.00  0.00    +0.000 A 
ATOM     37  C   LIG     1     -38.582  10.381 -38.755  0.00  0.00    +0.000 A 
ENDBRANCH  27  32
ENDBRANCH  25  26
ENDBRANCH  24  25
ENDBRANCH   4  24
TORSDOF 7
ENDMDL
MODEL 6
REMARK VINA RESULT:      -6.7     19.483     22.975
REMARK  Name = 118734340.pdb
REMARK  7 active torsions:
REMARK  status: ('A' for Active; 'I' for Inactive)
REMARK    1  A    between atoms: N_5  and  C_15
REMARK    2  A    between atoms: N_6  and  C_24
REMARK    3  A    between atoms: N_7  and  C_28
REMARK    4  A    between atoms: N_8  and  C_31
REMARK    5  A    between atoms: N_11  and  C_27
REMARK    6  A    between atoms: C_17  and  C_22
REMARK    7  A    between atoms: C_24  and  C_27
REMARK                            x       y       z     vdW  Elec       q    Type
REMARK                         _______ _______ _______ _____ _____    ______ ____
ROOT
ATOM      1  N   LIG     1     -33.500  11.540 -41.027  0.00  0.00    +0.000 N 
ATOM      2  N   LIG     1     -35.614  12.237 -40.911  0.00  0.00    +0.000 NA
ATOM      3  N   LIG     1     -32.367  13.497 -40.143  0.00  0.00    +0.000 NA
ATOM      4  N   LIG     1     -31.673  15.526 -39.266  0.00  0.00    +0.000 NA
ATOM      5  N   LIG     1     -33.957  15.253 -39.557  0.00  0.00    +0.000 NA
ATOM      6  N   LIG     1     -36.319  14.997 -39.847  0.00  0.00    +0.000 NA
ATOM      7  C   LIG     1     -33.454  12.804 -40.511  0.00  0.00    +0.000 A 
ATOM      8  C   LIG     1     -34.819  11.244 -41.251  0.00  0.00    +0.000 A 
ATOM      9  C   LIG     1     -34.774  13.218 -40.446  0.00  0.00    +0.000 A 
ATOM     10  C   LIG     1     -32.719  14.715 -39.677  0.00  0.00    +0.000 A 
ATOM     11  C   LIG     1     -35.010  14.495 -39.947  0.00  0.00    +0.000 A 
ENDROOT
BRANCH   1  16
ATOM     12  O   LIG     1     -32.669   9.640 -42.294  0.00  0.00    +0.000 OA
ATOM     13  O   LIG     1     -31.001  10.603 -39.262  0.00  0.00    +0.000 OA
ATOM     14  O   LIG     1     -29.878   8.978 -41.127  0.00  0.00    +0.000 OA
ATOM     15  C   LIG     1     -31.871   9.848 -40.081  0.00  0.00    +0.000 C 
ATOM     16  C   LIG     1     -32.327  10.631 -41.305  0.00  0.00    +0.000 C 
ATOM     17  C   LIG     1     -31.199   8.642 -40.708  0.00  0.00    +0.000 C 
ATOM     18  C   LIG     1     -32.056   8.394 -41.937  0.00  0.00    +0.000 C 
BRANCH  18  21
ATOM     19  O   LIG     1     -34.222   7.474 -42.316  0.00  0.00    +0.000 OA
ATOM     20  N   LIG     1     -32.887   6.567 -40.637  0.00  0.00    +0.000 NA
ATOM     21  C   LIG     1     -33.175   7.439 -41.674  0.00  0.00    +0.000 C 
BRANCH  20  22
ATOM     22  C   LIG     1     -33.814   5.560 -40.171  0.00  0.00    +0.000 C 
ATOM     23  C   LIG     1     -34.625   6.057 -38.992  0.00  0.00    +0.000 C 
ENDBRANCH  20  22
ENDBRANCH  18  21
ENDBRANCH   1  16
BRANCH   4  24
ATOM     24  C   LIG     1     -30.286  15.131 -39.317  0.00  0.00    +0.000 C 
BRANCH  24  25
ATOM     25  C   LIG     1     -29.645  15.675 -40.587  0.00  0.00    +0.000 C 
BRANCH  25  26
ATOM     26  N   LIG     1     -29.205  17.054 -40.384  0.00  0.00    +0.000 NA
ATOM     27  N   LIG     1     -29.243  19.656 -39.205  0.00  0.00    +0.000 N 
ATOM     28  C   LIG     1     -30.293  17.992 -40.689  0.00  0.00    +0.000 C 
ATOM     29  C   LIG     1     -28.750  17.252 -39.002  0.00  0.00    +0.000 C 
ATOM     30  C   LIG     1     -29.828  19.442 -40.535  0.00  0.00    +0.000 C 
ATOM     31  C   LIG     1     -28.234  18.677 -38.790  0.00  0.00    +0.000 C 
BRANCH  27  32
ATOM     32  C   LIG     1     -29.179  20.966 -38.719  0.00  0.00    +0.000 A 
ATOM     33  C   LIG     1     -30.016  21.365 -37.676  0.00  0.00    +0.000 A 
ATOM     34  C   LIG     1     -28.279  21.875 -39.276  0.00  0.00    +0.000 A 
ATOM     35  C   LIG     1     -29.954  22.673 -37.193  0.00  0.00    +0.000 A 
ATOM     36  C   LIG     1     -28.216  23.181 -38.792  0.00  0.00    +0.000 A 
ATOM     37  C   LIG     1     -29.054  23.580 -37.750  0.00  0.00    +0.000 A 
ENDBRANCH  27  32
ENDBRANCH  25  26
ENDBRANCH  24  25
ENDBRANCH   4  24
TORSDOF 7
ENDMDL
