MODEL 1
REMARK VINA RESULT:      -7.7      0.000      0.000
REMARK  Name = NEC.pdb
REMARK  7 active torsions:
REMARK  status: ('A' for Active; 'I' for Inactive)
REMARK    1  A    between atoms: C5'_1  and  C4'_6
REMARK    2  A    between atoms: N5'_3  and  C51_4
REMARK    3  A    between atoms: C51_4  and  C52_5
REMARK    4  A    between atoms: C3'_8  and  O3'_9
REMARK    5  A    between atoms: C2'_10  and  O2'_11
REMARK    6  A    between atoms: C1'_12  and  N9_13
REMARK    7  A    between atoms: C6_17  and  N6_18
REMARK                            x       y       z     vdW  Elec       q    Type
REMARK                         _______ _______ _______ _____ _____    ______ ____
ROOT
ATOM      1  C4' NEC     0      -1.755   0.212  -6.752  0.00  0.00    +0.000 C 
ATOM      2  O4' NEC     0      -2.043   0.268  -8.165  0.00  0.00    +0.000 OA
ATOM      3  C3' NEC     0      -2.136   1.626  -6.246  0.00  0.00    +0.000 C 
ATOM      4  C2' NEC     0      -1.689   2.523  -7.429  0.00  0.00    +0.000 C 
ATOM      5  C1' NEC     0      -1.621   1.560  -8.629  0.00  0.00    +0.000 C 
ENDROOT
BRANCH   5   6
ATOM      6  N9  NEC     0      -2.513   2.024  -9.694  0.00  0.00    +0.000 N 
ATOM      7  C8  NEC     0      -2.266   3.042 -10.565  0.00  0.00    +0.000 A 
ATOM      8  N7  NEC     0      -3.272   3.185 -11.379  0.00  0.00    +0.000 NA
ATOM      9  C5  NEC     0      -4.225   2.268 -11.082  0.00  0.00    +0.000 A 
ATOM     10  C6  NEC     0      -5.491   1.954 -11.606  0.00  0.00    +0.000 C 
ATOM     11  N1  NEC     0      -6.175   0.960 -11.053  0.00  0.00    +0.000 NA
ATOM     12  C2  NEC     0      -5.687   0.278 -10.034  0.00  0.00    +0.000 C 
ATOM     13  N3  NEC     0      -4.507   0.537  -9.511  0.00  0.00    +0.000 N 
ATOM     14  C4  NEC     0      -3.747   1.510 -10.002  0.00  0.00    +0.000 A 
ATOM     15  H   NEC     0      -4.184   0.004  -8.748  0.00  0.00    +0.000 HD
BRANCH  10  16
ATOM     16  N6  NEC     0      -6.011   2.664 -12.674  0.00  0.00    +0.000 NA
ATOM     17 HN61 NEC     0      -6.049   2.257 -13.554  0.00  0.00    +0.000 HD
ATOM     18 HN62 NEC     0      -6.339   3.567 -12.543  0.00  0.00    +0.000 HD
ENDBRANCH  10  16
ENDBRANCH   5   6
BRANCH   1  19
ATOM     19  C5' NEC     0      -2.602  -0.837  -6.079  0.00  0.00    +0.000 C 
ATOM     20  O5' NEC     0      -3.810  -0.789  -6.168  0.00  0.00    +0.000 OA
ATOM     21  N5' NEC     0      -2.016  -1.829  -5.380  0.00  0.00    +0.000 N 
ATOM     22  HN5 NEC     0      -1.050  -1.868  -5.310  0.00  0.00    +0.000 HD
BRANCH  21  23
ATOM     23  C51 NEC     0      -2.839  -2.850  -4.727  0.00  0.00    +0.000 C 
ATOM     24  C52 NEC     0      -2.075  -3.438  -3.540  0.00  0.00    +0.000 C 
ENDBRANCH  21  23
ENDBRANCH   1  19
BRANCH   3  25
ATOM     25  O3' NEC     0      -1.419   1.957  -5.055  0.00  0.00    +0.000 OA
ATOM     26 HO3' NEC     0      -1.731   2.829  -4.774  0.00  0.00    +0.000 HD
ENDBRANCH   3  25
BRANCH   4  27
ATOM     27  O2' NEC     0      -0.403   3.090  -7.168  0.00  0.00    +0.000 OA
ATOM     28 HO2' NEC     0      -0.305   3.846  -7.764  0.00  0.00    +0.000 HD
ENDBRANCH   4  27
TORSDOF 6
ENDMDL
MODEL 2
REMARK VINA RESULT:      -7.7      0.921      2.076
REMARK  Name = NEC.pdb
REMARK  7 active torsions:
REMARK  status: ('A' for Active; 'I' for Inactive)
REMARK    1  A    between atoms: C5'_1  and  C4'_6
REMARK    2  A    between atoms: N5'_3  and  C51_4
REMARK    3  A    between atoms: C51_4  and  C52_5
REMARK    4  A    between atoms: C3'_8  and  O3'_9
REMARK    5  A    between atoms: C2'_10  and  O2'_11
REMARK    6  A    between atoms: C1'_12  and  N9_13
REMARK    7  A    between atoms: C6_17  and  N6_18
REMARK                            x       y       z     vdW  Elec       q    Type
REMARK                         _______ _______ _______ _____ _____    ______ ____
ROOT
ATOM      1  C4' NEC     0      -1.908  -0.133  -6.506  0.00  0.00    +0.000 C 
ATOM      2  O4' NEC     0      -2.295  -0.133  -7.896  0.00  0.00    +0.000 OA
ATOM      3  C3' NEC     0      -2.372   1.255  -5.998  0.00  0.00    +0.000 C 
ATOM      4  C2' NEC     0      -2.085   2.160  -7.222  0.00  0.00    +0.000 C 
ATOM      5  C1' NEC     0      -2.017   1.180  -8.409  0.00  0.00    +0.000 C 
ENDROOT
BRANCH   5   6
ATOM      6  N9  NEC     0      -3.016   1.544  -9.416  0.00  0.00    +0.000 N 
ATOM      7  C8  NEC     0      -4.252   0.990  -9.562  0.00  0.00    +0.000 A 
ATOM      8  N7  NEC     0      -4.877   1.551 -10.558  0.00  0.00    +0.000 NA
ATOM      9  C5  NEC     0      -4.082   2.498 -11.112  0.00  0.00    +0.000 A 
ATOM     10  C6  NEC     0      -4.217   3.399 -12.181  0.00  0.00    +0.000 C 
ATOM     11  N1  NEC     0      -3.205   4.213 -12.455  0.00  0.00    +0.000 NA
ATOM     12  C2  NEC     0      -2.093   4.183 -11.745  0.00  0.00    +0.000 C 
ATOM     13  N3  NEC     0      -1.921   3.356 -10.735  0.00  0.00    +0.000 N 
ATOM     14  C4  NEC     0      -2.882   2.508 -10.383  0.00  0.00    +0.000 A 
ATOM     15  H   NEC     0      -1.073   3.365 -10.236  0.00  0.00    +0.000 HD
BRANCH  10  16
ATOM     16  N6  NEC     0      -5.380   3.438 -12.931  0.00  0.00    +0.000 NA
ATOM     17 HN61 NEC     0      -6.219   3.687 -12.513  0.00  0.00    +0.000 HD
ATOM     18 HN62 NEC     0      -5.355   3.219 -13.876  0.00  0.00    +0.000 HD
ENDBRANCH  10  16
ENDBRANCH   5   6
BRANCH   1  19
ATOM     19  C5' NEC     0      -2.613  -1.235  -5.758  0.00  0.00    +0.000 C 
ATOM     20  O5' NEC     0      -3.819  -1.344  -5.836  0.00  0.00    +0.000 OA
ATOM     21  N5' NEC     0      -1.905  -2.099  -5.005  0.00  0.00    +0.000 N 
ATOM     22  HN5 NEC     0      -0.942  -2.012  -4.944  0.00  0.00    +0.000 HD
BRANCH  21  23
ATOM     23  C51 NEC     0      -2.592  -3.171  -4.280  0.00  0.00    +0.000 C 
ATOM     24  C52 NEC     0      -1.787  -3.539  -3.032  0.00  0.00    +0.000 C 
ENDBRANCH  21  23
ENDBRANCH   1  19
BRANCH   3  25
ATOM     25  O3' NEC     0      -1.606   1.672  -4.865  0.00  0.00    +0.000 OA
ATOM     26 HO3' NEC     0      -2.193   1.625  -4.098  0.00  0.00    +0.000 HD
ENDBRANCH   3  25
BRANCH   4  27
ATOM     27  O2' NEC     0      -0.837   2.838  -7.062  0.00  0.00    +0.000 OA
ATOM     28 HO2' NEC     0      -0.868   3.280  -6.202  0.00  0.00    +0.000 HD
ENDBRANCH   4  27
TORSDOF 6
ENDMDL
MODEL 3
REMARK VINA RESULT:      -7.1      1.728      2.818
REMARK  Name = NEC.pdb
REMARK  7 active torsions:
REMARK  status: ('A' for Active; 'I' for Inactive)
REMARK    1  A    between atoms: C5'_1  and  C4'_6
REMARK    2  A    between atoms: N5'_3  and  C51_4
REMARK    3  A    between atoms: C51_4  and  C52_5
REMARK    4  A    between atoms: C3'_8  and  O3'_9
REMARK    5  A    between atoms: C2'_10  and  O2'_11
REMARK    6  A    between atoms: C1'_12  and  N9_13
REMARK    7  A    between atoms: C6_17  and  N6_18
REMARK                            x       y       z     vdW  Elec       q    Type
REMARK                         _______ _______ _______ _____ _____    ______ ____
ROOT
ATOM      1  C4' NEC     0      -1.992   0.667  -7.644  0.00  0.00    +0.000 C 
ATOM      2  O4' NEC     0      -2.236   0.820  -9.058  0.00  0.00    +0.000 OA
ATOM      3  C3' NEC     0      -2.448   2.022  -7.046  0.00  0.00    +0.000 C 
ATOM      4  C2' NEC     0      -2.000   3.024  -8.140  0.00  0.00    +0.000 C 
ATOM      5  C1' NEC     0      -1.853   2.160  -9.407  0.00  0.00    +0.000 C 
ENDROOT
BRANCH   5   6
ATOM      6  N9  NEC     0      -2.728   2.670 -10.464  0.00  0.00    +0.000 N 
ATOM      7  C8  NEC     0      -3.993   2.245 -10.738  0.00  0.00    +0.000 A 
ATOM      8  N7  NEC     0      -4.479   2.914 -11.744  0.00  0.00    +0.000 NA
ATOM      9  C5  NEC     0      -3.559   3.809 -12.177  0.00  0.00    +0.000 A 
ATOM     10  C6  NEC     0      -3.523   4.774 -13.197  0.00  0.00    +0.000 C 
ATOM     11  N1  NEC     0      -2.422   5.501 -13.342  0.00  0.00    +0.000 NA
ATOM     12  C2  NEC     0      -1.379   5.328 -12.552  0.00  0.00    +0.000 C 
ATOM     13  N3  NEC     0      -1.368   4.436 -11.583  0.00  0.00    +0.000 N 
ATOM     14  C4  NEC     0      -2.428   3.667 -11.358  0.00  0.00    +0.000 A 
ATOM     15  H   NEC     0      -0.566   4.339 -11.019  0.00  0.00    +0.000 HD
BRANCH  10  16
ATOM     16  N6  NEC     0      -4.611   4.963 -14.031  0.00  0.00    +0.000 NA
ATOM     17 HN61 NEC     0      -4.574   4.664 -14.953  0.00  0.00    +0.000 HD
ATOM     18 HN62 NEC     0      -5.412   5.394 -13.693  0.00  0.00    +0.000 HD
ENDBRANCH  10  16
ENDBRANCH   5   6
BRANCH   1  19
ATOM     19  C5' NEC     0      -2.816  -0.464  -7.083  0.00  0.00    +0.000 C 
ATOM     20  O5' NEC     0      -3.857  -0.779  -7.619  0.00  0.00    +0.000 OA
ATOM     21  N5' NEC     0      -2.394  -1.125  -5.987  0.00  0.00    +0.000 N 
ATOM     22  HN5 NEC     0      -1.562  -0.873  -5.559  0.00  0.00    +0.000 HD
BRANCH  21  23
ATOM     23  C51 NEC     0      -3.195  -2.225  -5.443  0.00  0.00    +0.000 C 
ATOM     24  C52 NEC     0      -2.352  -3.025  -4.448  0.00  0.00    +0.000 C 
ENDBRANCH  21  23
ENDBRANCH   1  19
BRANCH   3  25
ATOM     25  O3' NEC     0      -1.784   2.288  -5.808  0.00  0.00    +0.000 OA
ATOM     26 HO3' NEC     0      -2.474   2.388  -5.137  0.00  0.00    +0.000 HD
ENDBRANCH   3  25
BRANCH   4  27
ATOM     27  O2' NEC     0      -0.748   3.619  -7.791  0.00  0.00    +0.000 OA
ATOM     28 HO2' NEC     0      -0.895   4.574  -7.750  0.00  0.00    +0.000 HD
ENDBRANCH   4  27
TORSDOF 6
ENDMDL
MODEL 4
REMARK VINA RESULT:      -7.1      1.934      6.291
REMARK  Name = NEC.pdb
REMARK  7 active torsions:
REMARK  status: ('A' for Active; 'I' for Inactive)
REMARK    1  A    between atoms: C5'_1  and  C4'_6
REMARK    2  A    between atoms: N5'_3  and  C51_4
REMARK    3  A    between atoms: C51_4  and  C52_5
REMARK    4  A    between atoms: C3'_8  and  O3'_9
REMARK    5  A    between atoms: C2'_10  and  O2'_11
REMARK    6  A    between atoms: C1'_12  and  N9_13
REMARK    7  A    between atoms: C6_17  and  N6_18
REMARK                            x       y       z     vdW  Elec       q    Type
REMARK                         _______ _______ _______ _____ _____    ______ ____
ROOT
ATOM      1  C4' NEC     0      -3.088   2.671  -9.294  0.00  0.00    +0.000 C 
ATOM      2  O4' NEC     0      -3.162   1.792  -8.152  0.00  0.00    +0.000 OA
ATOM      3  C3' NEC     0      -1.629   2.503  -9.789  0.00  0.00    +0.000 C 
ATOM      4  C2' NEC     0      -0.851   2.356  -8.458  0.00  0.00    +0.000 C 
ATOM      5  C1' NEC     0      -1.922   1.924  -7.438  0.00  0.00    +0.000 C 
ENDROOT
BRANCH   5   6
ATOM      6  N9  NEC     0      -1.553   0.641  -6.837  0.00  0.00    +0.000 N 
ATOM      7  C8  NEC     0      -0.287   0.202  -6.590  0.00  0.00    +0.000 A 
ATOM      8  N7  NEC     0      -0.325  -0.982  -6.049  0.00  0.00    +0.000 NA
ATOM      9  C5  NEC     0      -1.615  -1.375  -5.916  0.00  0.00    +0.000 A 
ATOM     10  C6  NEC     0      -2.250  -2.523  -5.413  0.00  0.00    +0.000 C 
ATOM     11  N1  NEC     0      -3.577  -2.574  -5.437  0.00  0.00    +0.000 NA
ATOM     12  C2  NEC     0      -4.290  -1.574  -5.921  0.00  0.00    +0.000 C 
ATOM     13  N3  NEC     0      -3.738  -0.480  -6.403  0.00  0.00    +0.000 N 
ATOM     14  C4  NEC     0      -2.417  -0.337  -6.414  0.00  0.00    +0.000 A 
ATOM     15  H   NEC     0      -4.310   0.239  -6.757  0.00  0.00    +0.000 HD
BRANCH  10  16
ATOM     16  N6  NEC     0      -1.511  -3.576  -4.902  0.00  0.00    +0.000 NA
ATOM     17 HN61 NEC     0      -0.848  -3.414  -4.213  0.00  0.00    +0.000 HD
ATOM     18 HN62 NEC     0      -1.657  -4.476  -5.233  0.00  0.00    +0.000 HD
ENDBRANCH  10  16
ENDBRANCH   5   6
BRANCH   1  19
ATOM     19  C5' NEC     0      -4.063   2.241 -10.359  0.00  0.00    +0.000 C 
ATOM     20  O5' NEC     0      -4.791   1.290 -10.166  0.00  0.00    +0.000 OA
ATOM     21  N5' NEC     0      -4.128   2.914 -11.524  0.00  0.00    +0.000 N 
ATOM     22  HN5 NEC     0      -3.547   3.675 -11.678  0.00  0.00    +0.000 HD
BRANCH  21  23
ATOM     23  C51 NEC     0      -5.077   2.497 -12.559  0.00  0.00    +0.000 C 
ATOM     24  C52 NEC     0      -5.426   3.695 -13.444  0.00  0.00    +0.000 C 
ENDBRANCH  21  23
ENDBRANCH   1  19
BRANCH   3  25
ATOM     25  O3' NEC     0      -1.194   3.657 -10.511  0.00  0.00    +0.000 OA
ATOM     26 HO3' NEC     0      -0.913   3.352 -11.385  0.00  0.00    +0.000 HD
ENDBRANCH   3  25
BRANCH   4  27
ATOM     27  O2' NEC     0      -0.272   3.607  -8.076  0.00  0.00    +0.000 OA
ATOM     28 HO2' NEC     0      -0.009   3.521  -7.150  0.00  0.00    +0.000 HD
ENDBRANCH   4  27
TORSDOF 6
ENDMDL
MODEL 5
REMARK VINA RESULT:      -7.0      1.312      1.504
REMARK  Name = NEC.pdb
REMARK  7 active torsions:
REMARK  status: ('A' for Active; 'I' for Inactive)
REMARK    1  A    between atoms: C5'_1  and  C4'_6
REMARK    2  A    between atoms: N5'_3  and  C51_4
REMARK    3  A    between atoms: C51_4  and  C52_5
REMARK    4  A    between atoms: C3'_8  and  O3'_9
REMARK    5  A    between atoms: C2'_10  and  O2'_11
REMARK    6  A    between atoms: C1'_12  and  N9_13
REMARK    7  A    between atoms: C6_17  and  N6_18
REMARK                            x       y       z     vdW  Elec       q    Type
REMARK                         _______ _______ _______ _____ _____    ______ ____
ROOT
ATOM      1  C4' NEC     0      -1.909   0.871  -7.825  0.00  0.00    +0.000 C 
ATOM      2  O4' NEC     0      -2.035   1.078  -9.248  0.00  0.00    +0.000 OA
ATOM      3  C3' NEC     0      -2.378   2.217  -7.217  0.00  0.00    +0.000 C 
ATOM      4  C2' NEC     0      -1.820   3.242  -8.235  0.00  0.00    +0.000 C 
ATOM      5  C1' NEC     0      -1.593   2.418  -9.517  0.00  0.00    +0.000 C 
ENDROOT
BRANCH   5   6
ATOM      6  N9  NEC     0      -2.368   2.987 -10.622  0.00  0.00    +0.000 N 
ATOM      7  C8  NEC     0      -1.971   3.992 -11.451  0.00  0.00    +0.000 A 
ATOM      8  N7  NEC     0      -2.906   4.247 -12.321  0.00  0.00    +0.000 NA
ATOM      9  C5  NEC     0      -3.959   3.422 -12.104  0.00  0.00    +0.000 A 
ATOM     10  C6  NEC     0      -5.214   3.243 -12.711  0.00  0.00    +0.000 C 
ATOM     11  N1  NEC     0      -6.024   2.310 -12.225  0.00  0.00    +0.000 NA
ATOM     12  C2  NEC     0      -5.668   1.565 -11.195  0.00  0.00    +0.000 C 
ATOM     13  N3  NEC     0      -4.503   1.698 -10.596  0.00  0.00    +0.000 N 
ATOM     14  C4  NEC     0      -3.624   2.601 -11.017  0.00  0.00    +0.000 A 
ATOM     15  H   NEC     0      -4.281   1.122  -9.828  0.00  0.00    +0.000 HD
BRANCH  10  16
ATOM     16  N6  NEC     0      -5.596   4.019 -13.791  0.00  0.00    +0.000 NA
ATOM     17 HN61 NEC     0      -5.001   4.706 -14.130  0.00  0.00    +0.000 HD
ATOM     18 HN62 NEC     0      -6.458   3.875 -14.211  0.00  0.00    +0.000 HD
ENDBRANCH  10  16
ENDBRANCH   5   6
BRANCH   1  19
ATOM     19  C5' NEC     0      -2.802  -0.256  -7.372  0.00  0.00    +0.000 C 
ATOM     20  O5' NEC     0      -3.488  -0.847  -8.179  0.00  0.00    +0.000 OA
ATOM     21  N5' NEC     0      -2.836  -0.606  -6.071  0.00  0.00    +0.000 N 
ATOM     22  HN5 NEC     0      -2.288  -0.134  -5.427  0.00  0.00    +0.000 HD
BRANCH  21  23
ATOM     23  C51 NEC     0      -3.703  -1.702  -5.632  0.00  0.00    +0.000 C 
ATOM     24  C52 NEC     0      -2.850  -2.810  -5.011  0.00  0.00    +0.000 C 
ENDBRANCH  21  23
ENDBRANCH   1  19
BRANCH   3  25
ATOM     25  O3' NEC     0      -1.810   2.423  -5.922  0.00  0.00    +0.000 OA
ATOM     26 HO3' NEC     0      -1.760   3.380  -5.787  0.00  0.00    +0.000 HD
ENDBRANCH   3  25
BRANCH   4  27
ATOM     27  O2' NEC     0      -0.586   3.791  -7.768  0.00  0.00    +0.000 OA
ATOM     28 HO2' NEC     0      -0.050   3.048  -7.458  0.00  0.00    +0.000 HD
ENDBRANCH   4  27
TORSDOF 6
ENDMDL
MODEL 6
REMARK VINA RESULT:      -6.8      2.659      6.795
REMARK  Name = NEC.pdb
REMARK  7 active torsions:
REMARK  status: ('A' for Active; 'I' for Inactive)
REMARK    1  A    between atoms: C5'_1  and  C4'_6
REMARK    2  A    between atoms: N5'_3  and  C51_4
REMARK    3  A    between atoms: C51_4  and  C52_5
REMARK    4  A    between atoms: C3'_8  and  O3'_9
REMARK    5  A    between atoms: C2'_10  and  O2'_11
REMARK    6  A    between atoms: C1'_12  and  N9_13
REMARK    7  A    between atoms: C6_17  and  N6_18
REMARK                            x       y       z     vdW  Elec       q    Type
REMARK                         _______ _______ _______ _____ _____    ______ ____
ROOT
ATOM      1  C4' NEC     0      -2.223   4.005 -10.602  0.00  0.00    +0.000 C 
ATOM      2  O4' NEC     0      -3.087   3.177  -9.795  0.00  0.00    +0.000 OA
ATOM      3  C3' NEC     0      -0.874   3.244 -10.590  0.00  0.00    +0.000 C 
ATOM      4  C2' NEC     0      -0.831   2.685  -9.146  0.00  0.00    +0.000 C 
ATOM      5  C1' NEC     0      -2.302   2.704  -8.689  0.00  0.00    +0.000 C 
ENDROOT
BRANCH   5   6
ATOM      6  N9  NEC     0      -2.729   1.354  -8.315  0.00  0.00    +0.000 N 
ATOM      7  C8  NEC     0      -3.653   0.593  -8.965  0.00  0.00    +0.000 A 
ATOM      8  N7  NEC     0      -3.788  -0.554  -8.362  0.00  0.00    +0.000 NA
ATOM      9  C5  NEC     0      -2.960  -0.599  -7.290  0.00  0.00    +0.000 A 
ATOM     10  C6  NEC     0      -2.682  -1.553  -6.297  0.00  0.00    +0.000 C 
ATOM     11  N1  NEC     0      -1.782  -1.255  -5.368  0.00  0.00    +0.000 NA
ATOM     12  C2  NEC     0      -1.159  -0.092  -5.368  0.00  0.00    +0.000 C 
ATOM     13  N3  NEC     0      -1.388   0.832  -6.277  0.00  0.00    +0.000 N 
ATOM     14  C4  NEC     0      -2.268   0.621  -7.251  0.00  0.00    +0.000 A 
ATOM     15  H   NEC     0      -0.903   1.688  -6.236  0.00  0.00    +0.000 HD
BRANCH  10  16
ATOM     16  N6  NEC     0      -3.329  -2.777  -6.289  0.00  0.00    +0.000 NA
ATOM     17 HN61 NEC     0      -3.188  -3.405  -7.014  0.00  0.00    +0.000 HD
ATOM     18 HN62 NEC     0      -3.923  -3.006  -5.557  0.00  0.00    +0.000 HD
ENDBRANCH  10  16
ENDBRANCH   5   6
BRANCH   1  19
ATOM     19  C5' NEC     0      -2.757   4.118 -12.006  0.00  0.00    +0.000 C 
ATOM     20  O5' NEC     0      -3.746   3.495 -12.331  0.00  0.00    +0.000 OA
ATOM     21  N5' NEC     0      -2.136   4.912 -12.901  0.00  0.00    +0.000 N 
ATOM     22  HN5 NEC     0      -1.347   5.410 -12.641  0.00  0.00    +0.000 HD
BRANCH  21  23
ATOM     23  C51 NEC     0      -2.656   5.022 -14.266  0.00  0.00    +0.000 C 
ATOM     24  C52 NEC     0      -3.393   6.354 -14.425  0.00  0.00    +0.000 C 
ENDBRANCH  21  23
ENDBRANCH   1  19
BRANCH   3  25
ATOM     25  O3' NEC     0       0.221   4.132 -10.826  0.00  0.00    +0.000 OA
ATOM     26 HO3' NEC     0       0.896   3.625 -11.297  0.00  0.00    +0.000 HD
ENDBRANCH   3  25
BRANCH   4  27
ATOM     27  O2' NEC     0      -0.035   3.525  -8.307  0.00  0.00    +0.000 OA
ATOM     28 HO2' NEC     0      -0.612   4.237  -7.997  0.00  0.00    +0.000 HD
ENDBRANCH   4  27
TORSDOF 6
ENDMDL
MODEL 7
REMARK VINA RESULT:      -6.8      4.303      6.362
REMARK  Name = NEC.pdb
REMARK  7 active torsions:
REMARK  status: ('A' for Active; 'I' for Inactive)
REMARK    1  A    between atoms: C5'_1  and  C4'_6
REMARK    2  A    between atoms: N5'_3  and  C51_4
REMARK    3  A    between atoms: C51_4  and  C52_5
REMARK    4  A    between atoms: C3'_8  and  O3'_9
REMARK    5  A    between atoms: C2'_10  and  O2'_11
REMARK    6  A    between atoms: C1'_12  and  N9_13
REMARK    7  A    between atoms: C6_17  and  N6_18
REMARK                            x       y       z     vdW  Elec       q    Type
REMARK                         _______ _______ _______ _____ _____    ______ ____
ROOT
ATOM      1  C4' NEC     0      -2.116   3.727 -11.307  0.00  0.00    +0.000 C 
ATOM      2  O4' NEC     0      -2.817   3.902 -12.556  0.00  0.00    +0.000 OA
ATOM      3  C3' NEC     0      -1.935   5.176 -10.786  0.00  0.00    +0.000 C 
ATOM      4  C2' NEC     0      -1.674   5.959 -12.097  0.00  0.00    +0.000 C 
ATOM      5  C1' NEC     0      -2.246   5.051 -13.202  0.00  0.00    +0.000 C 
ENDROOT
BRANCH   5   6
ATOM      6  N9  NEC     0      -3.279   5.766 -13.953  0.00  0.00    +0.000 N 
ATOM      7  C8  NEC     0      -3.788   6.994 -13.655  0.00  0.00    +0.000 A 
ATOM      8  N7  NEC     0      -4.690   7.327 -14.533  0.00  0.00    +0.000 NA
ATOM      9  C5  NEC     0      -4.816   6.336 -15.448  0.00  0.00    +0.000 A 
ATOM     10  C6  NEC     0      -5.608   6.142 -16.592  0.00  0.00    +0.000 C 
ATOM     11  N1  NEC     0      -5.466   5.014 -17.277  0.00  0.00    +0.000 NA
ATOM     12  C2  NEC     0      -4.603   4.089 -16.899  0.00  0.00    +0.000 C 
ATOM     13  N3  NEC     0      -3.841   4.227 -15.834  0.00  0.00    +0.000 N 
ATOM     14  C4  NEC     0      -3.909   5.326 -15.090  0.00  0.00    +0.000 A 
ATOM     15  H   NEC     0      -3.213   3.509 -15.588  0.00  0.00    +0.000 HD
BRANCH  10  16
ATOM     16  N6  NEC     0      -6.515   7.107 -16.996  0.00  0.00    +0.000 NA
ATOM     17 HN61 NEC     0      -6.652   7.901 -16.457  0.00  0.00    +0.000 HD
ATOM     18 HN62 NEC     0      -7.013   6.988 -17.820  0.00  0.00    +0.000 HD
ENDBRANCH  10  16
ENDBRANCH   5   6
BRANCH   1  19
ATOM     19  C5' NEC     0      -2.944   2.917 -10.342  0.00  0.00    +0.000 C 
ATOM     20  O5' NEC     0      -2.640   2.876  -9.169  0.00  0.00    +0.000 OA
ATOM     21  N5' NEC     0      -4.022   2.241 -10.784  0.00  0.00    +0.000 N 
ATOM     22  HN5 NEC     0      -4.266   2.274 -11.721  0.00  0.00    +0.000 HD
BRANCH  21  23
ATOM     23  C51 NEC     0      -4.827   1.455  -9.845  0.00  0.00    +0.000 C 
ATOM     24  C52 NEC     0      -5.734   0.502 -10.626  0.00  0.00    +0.000 C 
ENDBRANCH  21  23
ENDBRANCH   1  19
BRANCH   3  25
ATOM     25  O3' NEC     0      -0.814   5.269  -9.904  0.00  0.00    +0.000 OA
ATOM     26 HO3' NEC     0      -0.341   4.427  -9.963  0.00  0.00    +0.000 HD
ENDBRANCH   3  25
BRANCH   4  27
ATOM     27  O2' NEC     0      -0.271   6.159 -12.290  0.00  0.00    +0.000 OA
ATOM     28 HO2' NEC     0       0.009   5.531 -12.970  0.00  0.00    +0.000 HD
ENDBRANCH   4  27
TORSDOF 6
ENDMDL
MODEL 8
REMARK VINA RESULT:      -6.7      5.562      9.219
REMARK  Name = NEC.pdb
REMARK  7 active torsions:
REMARK  status: ('A' for Active; 'I' for Inactive)
REMARK    1  A    between atoms: C5'_1  and  C4'_6
REMARK    2  A    between atoms: N5'_3  and  C51_4
REMARK    3  A    between atoms: C51_4  and  C52_5
REMARK    4  A    between atoms: C3'_8  and  O3'_9
REMARK    5  A    between atoms: C2'_10  and  O2'_11
REMARK    6  A    between atoms: C1'_12  and  N9_13
REMARK    7  A    between atoms: C6_17  and  N6_18
REMARK                            x       y       z     vdW  Elec       q    Type
REMARK                         _______ _______ _______ _____ _____    ______ ____
ROOT
ATOM      1  C4' NEC     0      -5.031   4.818 -15.546  0.00  0.00    +0.000 C 
ATOM      2  O4' NEC     0      -4.392   4.107 -14.465  0.00  0.00    +0.000 OA
ATOM      3  C3' NEC     0      -4.358   6.214 -15.512  0.00  0.00    +0.000 C 
ATOM      4  C2' NEC     0      -4.179   6.448 -13.990  0.00  0.00    +0.000 C 
ATOM      5  C1' NEC     0      -4.246   5.036 -13.379  0.00  0.00    +0.000 C 
ENDROOT
BRANCH   5   6
ATOM      6  N9  NEC     0      -3.014   4.751 -12.641  0.00  0.00    +0.000 N 
ATOM      7  C8  NEC     0      -1.817   5.383 -12.797  0.00  0.00    +0.000 A 
ATOM      8  N7  NEC     0      -0.937   4.877 -11.980  0.00  0.00    +0.000 NA
ATOM      9  C5  NEC     0      -1.514   3.892 -11.251  0.00  0.00    +0.000 A 
ATOM     10  C6  NEC     0      -1.069   3.018 -10.244  0.00  0.00    +0.000 C 
ATOM     11  N1  NEC     0      -1.933   2.149  -9.733  0.00  0.00    +0.000 NA
ATOM     12  C2  NEC     0      -3.182   2.099 -10.156  0.00  0.00    +0.000 C 
ATOM     13  N3  NEC     0      -3.643   2.896 -11.097  0.00  0.00    +0.000 N 
ATOM     14  C4  NEC     0      -2.853   3.803 -11.662  0.00  0.00    +0.000 A 
ATOM     15  H   NEC     0      -4.582   2.821 -11.383  0.00  0.00    +0.000 HD
BRANCH  10  16
ATOM     16  N6  NEC     0       0.239   3.064  -9.794  0.00  0.00    +0.000 NA
ATOM     17 HN61 NEC     0       0.643   3.915  -9.564  0.00  0.00    +0.000 HD
ATOM     18 HN62 NEC     0       0.751   2.245  -9.707  0.00  0.00    +0.000 HD
ENDBRANCH  10  16
ENDBRANCH   5   6
BRANCH   1  19
ATOM     19  C5' NEC     0      -4.765   4.134 -16.862  0.00  0.00    +0.000 C 
ATOM     20  O5' NEC     0      -3.817   3.387 -16.976  0.00  0.00    +0.000 OA
ATOM     21  N5' NEC     0      -5.582   4.352 -17.912  0.00  0.00    +0.000 N 
ATOM     22  HN5 NEC     0      -6.340   4.949 -17.820  0.00  0.00    +0.000 HD
BRANCH  21  23
ATOM     23  C51 NEC     0      -5.324   3.685 -19.190  0.00  0.00    +0.000 C 
ATOM     24  C52 NEC     0      -6.643   3.173 -19.773  0.00  0.00    +0.000 C 
ENDBRANCH  21  23
ENDBRANCH   1  19
BRANCH   3  25
ATOM     25  O3' NEC     0      -5.208   7.210 -16.085  0.00  0.00    +0.000 OA
ATOM     26 HO3' NEC     0      -6.108   7.013 -15.791  0.00  0.00    +0.000 HD
ENDBRANCH   3  25
BRANCH   4  27
ATOM     27  O2' NEC     0      -5.237   7.264 -13.482  0.00  0.00    +0.000 OA
ATOM     28 HO2' NEC     0      -5.216   8.092 -13.983  0.00  0.00    +0.000 HD
ENDBRANCH   4  27
TORSDOF 6
ENDMDL
MODEL 9
REMARK VINA RESULT:      -6.7      5.555      9.459
REMARK  Name = NEC.pdb
REMARK  7 active torsions:
REMARK  status: ('A' for Active; 'I' for Inactive)
REMARK    1  A    between atoms: C5'_1  and  C4'_6
REMARK    2  A    between atoms: N5'_3  and  C51_4
REMARK    3  A    between atoms: C51_4  and  C52_5
REMARK    4  A    between atoms: C3'_8  and  O3'_9
REMARK    5  A    between atoms: C2'_10  and  O2'_11
REMARK    6  A    between atoms: C1'_12  and  N9_13
REMARK    7  A    between atoms: C6_17  and  N6_18
REMARK                            x       y       z     vdW  Elec       q    Type
REMARK                         _______ _______ _______ _____ _____    ______ ____
ROOT
ATOM      1  C4' NEC     0      -5.797   5.534 -15.441  0.00  0.00    +0.000 C 
ATOM      2  O4' NEC     0      -5.642   5.289 -14.027  0.00  0.00    +0.000 OA
ATOM      3  C3' NEC     0      -4.984   4.391 -16.100  0.00  0.00    +0.000 C 
ATOM      4  C2' NEC     0      -3.784   4.249 -15.130  0.00  0.00    +0.000 C 
ATOM      5  C1' NEC     0      -4.280   4.885 -13.818  0.00  0.00    +0.000 C 
ENDROOT
BRANCH   5   6
ATOM      6  N9  NEC     0      -4.211   3.907 -12.730  0.00  0.00    +0.000 N 
ATOM      7  C8  NEC     0      -5.188   3.026 -12.376  0.00  0.00    +0.000 A 
ATOM      8  N7  NEC     0      -4.793   2.305 -11.366  0.00  0.00    +0.000 NA
ATOM      9  C5  NEC     0      -3.539   2.677 -11.011  0.00  0.00    +0.000 A 
ATOM     10  C6  NEC     0      -2.629   2.264 -10.023  0.00  0.00    +0.000 C 
ATOM     11  N1  NEC     0      -1.448   2.867  -9.960  0.00  0.00    +0.000 NA
ATOM     12  C2  NEC     0      -1.127   3.833 -10.800  0.00  0.00    +0.000 C 
ATOM     13  N3  NEC     0      -1.948   4.252 -11.741  0.00  0.00    +0.000 N 
ATOM     14  C4  NEC     0      -3.150   3.704 -11.885  0.00  0.00    +0.000 A 
ATOM     15  H   NEC     0      -1.668   4.979 -12.343  0.00  0.00    +0.000 HD
BRANCH  10  16
ATOM     16  N6  NEC     0      -2.955   1.252  -9.138  0.00  0.00    +0.000 NA
ATOM     17 HN61 NEC     0      -3.638   1.397  -8.465  0.00  0.00    +0.000 HD
ATOM     18 HN62 NEC     0      -2.502   0.396  -9.192  0.00  0.00    +0.000 HD
ENDBRANCH  10  16
ENDBRANCH   5   6
BRANCH   1  19
ATOM     19  C5' NEC     0      -7.248   5.449 -15.838  0.00  0.00    +0.000 C 
ATOM     20  O5' NEC     0      -8.016   4.770 -15.189  0.00  0.00    +0.000 OA
ATOM     21  N5' NEC     0      -7.693   6.128 -16.914  0.00  0.00    +0.000 N 
ATOM     22  HN5 NEC     0      -7.080   6.671 -17.432  0.00  0.00    +0.000 HD
BRANCH  21  23
ATOM     23  C51 NEC     0      -9.104   6.047 -17.298  0.00  0.00    +0.000 C 
ATOM     24  C52 NEC     0      -9.860   7.246 -16.722  0.00  0.00    +0.000 C 
ENDBRANCH  21  23
ENDBRANCH   1  19
BRANCH   3  25
ATOM     25  O3' NEC     0      -4.542   4.761 -17.408  0.00  0.00    +0.000 OA
ATOM     26 HO3' NEC     0      -3.615   4.495 -17.476  0.00  0.00    +0.000 HD
ENDBRANCH   3  25
BRANCH   4  27
ATOM     27  O2' NEC     0      -2.648   4.957 -15.632  0.00  0.00    +0.000 OA
ATOM     28 HO2' NEC     0      -2.961   5.498 -16.371  0.00  0.00    +0.000 HD
ENDBRANCH   4  27
TORSDOF 6
ENDMDL
MODEL 10
REMARK VINA RESULT:      -6.5      2.844      4.935
REMARK  Name = NEC.pdb
REMARK  7 active torsions:
REMARK  status: ('A' for Active; 'I' for Inactive)
REMARK    1  A    between atoms: C5'_1  and  C4'_6
REMARK    2  A    between atoms: N5'_3  and  C51_4
REMARK    3  A    between atoms: C51_4  and  C52_5
REMARK    4  A    between atoms: C3'_8  and  O3'_9
REMARK    5  A    between atoms: C2'_10  and  O2'_11
REMARK    6  A    between atoms: C1'_12  and  N9_13
REMARK    7  A    between atoms: C6_17  and  N6_18
REMARK                            x       y       z     vdW  Elec       q    Type
REMARK                         _______ _______ _______ _____ _____    ______ ____
ROOT
ATOM      1  C4' NEC     0      -4.465   1.369  -9.435  0.00  0.00    +0.000 C 
ATOM      2  O4' NEC     0      -4.250   2.599 -10.159  0.00  0.00    +0.000 OA
ATOM      3  C3' NEC     0      -4.973   0.389 -10.523  0.00  0.00    +0.000 C 
ATOM      4  C2' NEC     0      -5.844   1.315 -11.409  0.00  0.00    +0.000 C 
ATOM      5  C1' NEC     0      -5.335   2.734 -11.090  0.00  0.00    +0.000 C 
ENDROOT
BRANCH   5   6
ATOM      6  N9  NEC     0      -4.864   3.384 -12.314  0.00  0.00    +0.000 N 
ATOM      7  C8  NEC     0      -5.528   3.442 -13.502  0.00  0.00    +0.000 A 
ATOM      8  N7  NEC     0      -4.820   4.097 -14.377  0.00  0.00    +0.000 NA
ATOM      9  C5  NEC     0      -3.659   4.499 -13.805  0.00  0.00    +0.000 A 
ATOM     10  C6  NEC     0      -2.538   5.221 -14.249  0.00  0.00    +0.000 C 
ATOM     11  N1  NEC     0      -1.548   5.442 -13.392  0.00  0.00    +0.000 NA
ATOM     12  C2  NEC     0      -1.606   4.996 -12.151  0.00  0.00    +0.000 C 
ATOM     13  N3  NEC     0      -2.636   4.316 -11.692  0.00  0.00    +0.000 N 
ATOM     14  C4  NEC     0      -3.677   4.052 -12.475  0.00  0.00    +0.000 A 
ATOM     15  H   NEC     0      -2.635   4.000 -10.759  0.00  0.00    +0.000 HD
BRANCH  10  16
ATOM     16  N6  NEC     0      -2.468   5.693 -15.548  0.00  0.00    +0.000 NA
ATOM     17 HN61 NEC     0      -1.668   5.543 -16.076  0.00  0.00    +0.000 HD
ATOM     18 HN62 NEC     0      -3.219   6.171 -15.931  0.00  0.00    +0.000 HD
ENDBRANCH  10  16
ENDBRANCH   5   6
BRANCH   1  19
ATOM     19  C5' NEC     0      -3.175   0.872  -8.836  0.00  0.00    +0.000 C 
ATOM     20  O5' NEC     0      -2.130   1.430  -9.099  0.00  0.00    +0.000 OA
ATOM     21  N5' NEC     0      -3.182  -0.190  -8.006  0.00  0.00    +0.000 N 
ATOM     22  HN5 NEC     0      -4.016  -0.634  -7.795  0.00  0.00    +0.000 HD
BRANCH  21  23
ATOM     23  C51 NEC     0      -1.927  -0.670  -7.423  0.00  0.00    +0.000 C 
ATOM     24  C52 NEC     0      -1.879  -0.297  -5.940  0.00  0.00    +0.000 C 
ENDBRANCH  21  23
ENDBRANCH   1  19
BRANCH   3  25
ATOM     25  O3' NEC     0      -5.760  -0.656  -9.949  0.00  0.00    +0.000 OA
ATOM     26 HO3' NEC     0      -6.566  -0.244  -9.606  0.00  0.00    +0.000 HD
ENDBRANCH   3  25
BRANCH   4  27
ATOM     27  O2' NEC     0      -7.225   1.188 -11.059  0.00  0.00    +0.000 OA
ATOM     28 HO2' NEC     0      -7.678   1.958 -11.430  0.00  0.00    +0.000 HD
ENDBRANCH   4  27
TORSDOF 6
ENDMDL
MODEL 11
REMARK VINA RESULT:      -6.5      3.785      5.851
REMARK  Name = NEC.pdb
REMARK  7 active torsions:
REMARK  status: ('A' for Active; 'I' for Inactive)
REMARK    1  A    between atoms: C5'_1  and  C4'_6
REMARK    2  A    between atoms: N5'_3  and  C51_4
REMARK    3  A    between atoms: C51_4  and  C52_5
REMARK    4  A    between atoms: C3'_8  and  O3'_9
REMARK    5  A    between atoms: C2'_10  and  O2'_11
REMARK    6  A    between atoms: C1'_12  and  N9_13
REMARK    7  A    between atoms: C6_17  and  N6_18
REMARK                            x       y       z     vdW  Elec       q    Type
REMARK                         _______ _______ _______ _____ _____    ______ ____
ROOT
ATOM      1  C4' NEC     0      -0.548   4.215 -10.900  0.00  0.00    +0.000 C 
ATOM      2  O4' NEC     0      -1.273   3.875 -12.101  0.00  0.00    +0.000 OA
ATOM      3  C3' NEC     0      -1.476   5.234 -10.191  0.00  0.00    +0.000 C 
ATOM      4  C2' NEC     0      -2.062   6.025 -11.388  0.00  0.00    +0.000 C 
ATOM      5  C1' NEC     0      -1.862   5.088 -12.594  0.00  0.00    +0.000 C 
ENDROOT
BRANCH   5   6
ATOM      6  N9  NEC     0      -3.153   4.797 -13.221  0.00  0.00    +0.000 N 
ATOM      7  C8  NEC     0      -4.021   3.812 -12.858  0.00  0.00    +0.000 A 
ATOM      8  N7  NEC     0      -5.071   3.837 -13.629  0.00  0.00    +0.000 NA
ATOM      9  C5  NEC     0      -4.942   4.839 -14.532  0.00  0.00    +0.000 A 
ATOM     10  C6  NEC     0      -5.735   5.329 -15.583  0.00  0.00    +0.000 C 
ATOM     11  N1  NEC     0      -5.286   6.361 -16.287  0.00  0.00    +0.000 NA
ATOM     12  C2  NEC     0      -4.121   6.919 -16.014  0.00  0.00    +0.000 C 
ATOM     13  N3  NEC     0      -3.344   6.493 -15.041  0.00  0.00    +0.000 N 
ATOM     14  C4  NEC     0      -3.714   5.469 -14.278  0.00  0.00    +0.000 A 
ATOM     15  H   NEC     0      -2.481   6.937 -14.876  0.00  0.00    +0.000 HD
BRANCH  10  16
ATOM     16  N6  NEC     0      -6.959   4.752 -15.875  0.00  0.00    +0.000 NA
ATOM     17 HN61 NEC     0      -7.018   3.798 -16.044  0.00  0.00    +0.000 HD
ATOM     18 HN62 NEC     0      -7.758   5.301 -15.911  0.00  0.00    +0.000 HD
ENDBRANCH  10  16
ENDBRANCH   5   6
BRANCH   1  19
ATOM     19  C5' NEC     0      -0.344   2.996 -10.039  0.00  0.00    +0.000 C 
ATOM     20  O5' NEC     0       0.766   2.522  -9.914  0.00  0.00    +0.000 OA
ATOM     21  N5' NEC     0      -1.393   2.433  -9.408  0.00  0.00    +0.000 N 
ATOM     22  HN5 NEC     0      -2.279   2.812  -9.508  0.00  0.00    +0.000 HD
BRANCH  21  23
ATOM     23  C51 NEC     0      -1.192   1.249  -8.569  0.00  0.00    +0.000 C 
ATOM     24  C52 NEC     0      -2.541   0.574  -8.310  0.00  0.00    +0.000 C 
ENDBRANCH  21  23
ENDBRANCH   1  19
BRANCH   3  25
ATOM     25  O3' NEC     0      -0.731   6.095  -9.327  0.00  0.00    +0.000 OA
ATOM     26 HO3' NEC     0      -0.286   6.741  -9.892  0.00  0.00    +0.000 HD
ENDBRANCH   3  25
BRANCH   4  27
ATOM     27  O2' NEC     0      -1.345   7.247 -11.579  0.00  0.00    +0.000 OA
ATOM     28 HO2' NEC     0      -1.649   7.858 -10.893  0.00  0.00    +0.000 HD
ENDBRANCH   4  27
TORSDOF 6
ENDMDL
MODEL 12
REMARK VINA RESULT:      -6.4      3.152      7.150
REMARK  Name = NEC.pdb
REMARK  7 active torsions:
REMARK  status: ('A' for Active; 'I' for Inactive)
REMARK    1  A    between atoms: C5'_1  and  C4'_6
REMARK    2  A    between atoms: N5'_3  and  C51_4
REMARK    3  A    between atoms: C51_4  and  C52_5
REMARK    4  A    between atoms: C3'_8  and  O3'_9
REMARK    5  A    between atoms: C2'_10  and  O2'_11
REMARK    6  A    between atoms: C1'_12  and  N9_13
REMARK    7  A    between atoms: C6_17  and  N6_18
REMARK                            x       y       z     vdW  Elec       q    Type
REMARK                         _______ _______ _______ _____ _____    ______ ____
ROOT
ATOM      1  C4' NEC     0      -4.663   2.190 -12.018  0.00  0.00    +0.000 C 
ATOM      2  O4' NEC     0      -3.551   2.184 -11.099  0.00  0.00    +0.000 OA
ATOM      3  C3' NEC     0      -5.898   2.020 -11.098  0.00  0.00    +0.000 C 
ATOM      4  C2' NEC     0      -5.365   1.045 -10.019  0.00  0.00    +0.000 C 
ATOM      5  C1' NEC     0      -3.833   1.185 -10.106  0.00  0.00    +0.000 C 
ENDROOT
BRANCH   5   6
ATOM      6  N9  NEC     0      -3.295   1.604  -8.810  0.00  0.00    +0.000 N 
ATOM      7  C8  NEC     0      -3.174   2.886  -8.364  0.00  0.00    +0.000 A 
ATOM      8  N7  NEC     0      -2.656   2.895  -7.169  0.00  0.00    +0.000 NA
ATOM      9  C5  NEC     0      -2.413   1.621  -6.775  0.00  0.00    +0.000 A 
ATOM     10  C6  NEC     0      -1.877   1.031  -5.618  0.00  0.00    +0.000 C 
ATOM     11  N1  NEC     0      -1.783  -0.292  -5.568  0.00  0.00    +0.000 NA
ATOM     12  C2  NEC     0      -2.178  -1.044  -6.578  0.00  0.00    +0.000 C 
ATOM     13  N3  NEC     0      -2.685  -0.535  -7.682  0.00  0.00    +0.000 N 
ATOM     14  C4  NEC     0      -2.825   0.780  -7.820  0.00  0.00    +0.000 A 
ATOM     15  H   NEC     0      -2.963  -1.134  -8.412  0.00  0.00    +0.000 HD
BRANCH  10  16
ATOM     16  N6  NEC     0      -1.461   1.811  -4.553  0.00  0.00    +0.000 NA
ATOM     17 HN61 NEC     0      -0.596   2.250  -4.582  0.00  0.00    +0.000 HD
ATOM     18 HN62 NEC     0      -2.034   1.919  -3.778  0.00  0.00    +0.000 HD
ENDBRANCH  10  16
ENDBRANCH   5   6
BRANCH   1  19
ATOM     19  C5' NEC     0      -4.731   3.500 -12.760  0.00  0.00    +0.000 C 
ATOM     20  O5' NEC     0      -5.791   3.891 -13.204  0.00  0.00    +0.000 OA
ATOM     21  N5' NEC     0      -3.616   4.238 -12.929  0.00  0.00    +0.000 N 
ATOM     22  HN5 NEC     0      -2.770   3.925 -12.574  0.00  0.00    +0.000 HD
BRANCH  21  23
ATOM     23  C51 NEC     0      -3.684   5.512 -13.649  0.00  0.00    +0.000 C 
ATOM     24  C52 NEC     0      -2.993   5.367 -15.007  0.00  0.00    +0.000 C 
ENDBRANCH  21  23
ENDBRANCH   1  19
BRANCH   3  25
ATOM     25  O3' NEC     0      -6.996   1.444 -11.809  0.00  0.00    +0.000 OA
ATOM     26 HO3' NEC     0      -7.787   1.597 -11.274  0.00  0.00    +0.000 HD
ENDBRANCH   3  25
BRANCH   4  27
ATOM     27  O2' NEC     0      -5.762  -0.296 -10.317  0.00  0.00    +0.000 OA
ATOM     28 HO2' NEC     0      -6.633  -0.424  -9.916  0.00  0.00    +0.000 HD
ENDBRANCH   4  27
TORSDOF 6
ENDMDL
MODEL 13
REMARK VINA RESULT:      -6.3      5.937      9.729
REMARK  Name = NEC.pdb
REMARK  7 active torsions:
REMARK  status: ('A' for Active; 'I' for Inactive)
REMARK    1  A    between atoms: C5'_1  and  C4'_6
REMARK    2  A    between atoms: N5'_3  and  C51_4
REMARK    3  A    between atoms: C51_4  and  C52_5
REMARK    4  A    between atoms: C3'_8  and  O3'_9
REMARK    5  A    between atoms: C2'_10  and  O2'_11
REMARK    6  A    between atoms: C1'_12  and  N9_13
REMARK    7  A    between atoms: C6_17  and  N6_18
REMARK                            x       y       z     vdW  Elec       q    Type
REMARK                         _______ _______ _______ _____ _____    ______ ____
ROOT
ATOM      1  C4' NEC     0      -4.552   6.243 -15.455  0.00  0.00    +0.000 C 
ATOM      2  O4' NEC     0      -3.338   5.736 -14.862  0.00  0.00    +0.000 OA
ATOM      3  C3' NEC     0      -5.571   6.204 -14.289  0.00  0.00    +0.000 C 
ATOM      4  C2' NEC     0      -5.165   4.906 -13.548  0.00  0.00    +0.000 C 
ATOM      5  C1' NEC     0      -3.714   4.651 -13.999  0.00  0.00    +0.000 C 
ENDROOT
BRANCH   5   6
ATOM      6  N9  NEC     0      -2.827   4.610 -12.835  0.00  0.00    +0.000 N 
ATOM      7  C8  NEC     0      -1.736   5.399 -12.624  0.00  0.00    +0.000 A 
ATOM      8  N7  NEC     0      -1.180   5.095 -11.487  0.00  0.00    +0.000 NA
ATOM      9  C5  NEC     0      -1.878   4.094 -10.897  0.00  0.00    +0.000 A 
ATOM     10  C6  NEC     0      -1.752   3.377  -9.695  0.00  0.00    +0.000 C 
ATOM     11  N1  NEC     0      -2.645   2.432  -9.426  0.00  0.00    +0.000 NA
ATOM     12  C2  NEC     0      -3.630   2.164 -10.263  0.00  0.00    +0.000 C 
ATOM     13  N3  NEC     0      -3.786   2.809 -11.400  0.00  0.00    +0.000 N 
ATOM     14  C4  NEC     0      -2.945   3.776 -11.752  0.00  0.00    +0.000 A 
ATOM     15  H   NEC     0      -4.533   2.572 -11.996  0.00  0.00    +0.000 HD
BRANCH  10  16
ATOM     16  N6  NEC     0      -0.724   3.652  -8.811  0.00  0.00    +0.000 NA
ATOM     17 HN61 NEC     0      -0.079   2.963  -8.588  0.00  0.00    +0.000 HD
ATOM     18 HN62 NEC     0      -0.648   4.534  -8.415  0.00  0.00    +0.000 HD
ENDBRANCH  10  16
ENDBRANCH   5   6
BRANCH   1  19
ATOM     19  C5' NEC     0      -4.356   7.656 -15.941  0.00  0.00    +0.000 C 
ATOM     20  O5' NEC     0      -3.931   8.503 -15.184  0.00  0.00    +0.000 OA
ATOM     21  N5' NEC     0      -4.651   7.978 -17.216  0.00  0.00    +0.000 N 
ATOM     22  HN5 NEC     0      -4.989   7.301 -17.820  0.00  0.00    +0.000 HD
BRANCH  21  23
ATOM     23  C51 NEC     0      -4.458   9.351 -17.688  0.00  0.00    +0.000 C 
ATOM     24  C52 NEC     0      -4.816   9.435 -19.172  0.00  0.00    +0.000 C 
ENDBRANCH  21  23
ENDBRANCH   1  19
BRANCH   3  25
ATOM     25  O3' NEC     0      -6.911   6.114 -14.778  0.00  0.00    +0.000 OA
ATOM     26 HO3' NEC     0      -7.408   5.586 -14.138  0.00  0.00    +0.000 HD
ENDBRANCH   3  25
BRANCH   4  27
ATOM     27  O2' NEC     0      -6.008   3.821 -13.941  0.00  0.00    +0.000 OA
ATOM     28 HO2' NEC     0      -6.487   3.538 -13.149  0.00  0.00    +0.000 HD
ENDBRANCH   4  27
TORSDOF 6
ENDMDL
MODEL 14
REMARK VINA RESULT:      -6.3      7.566     10.196
REMARK  Name = NEC.pdb
REMARK  7 active torsions:
REMARK  status: ('A' for Active; 'I' for Inactive)
REMARK    1  A    between atoms: C5'_1  and  C4'_6
REMARK    2  A    between atoms: N5'_3  and  C51_4
REMARK    3  A    between atoms: C51_4  and  C52_5
REMARK    4  A    between atoms: C3'_8  and  O3'_9
REMARK    5  A    between atoms: C2'_10  and  O2'_11
REMARK    6  A    between atoms: C1'_12  and  N9_13
REMARK    7  A    between atoms: C6_17  and  N6_18
REMARK                            x       y       z     vdW  Elec       q    Type
REMARK                         _______ _______ _______ _____ _____    ______ ____
ROOT
ATOM      1  C4' NEC     0      -3.904   5.831 -15.552  0.00  0.00    +0.000 C 
ATOM      2  O4' NEC     0      -4.599   5.994 -16.806  0.00  0.00    +0.000 OA
ATOM      3  C3' NEC     0      -4.537   6.913 -14.641  0.00  0.00    +0.000 C 
ATOM      4  C2' NEC     0      -4.759   8.081 -15.635  0.00  0.00    +0.000 C 
ATOM      5  C1' NEC     0      -4.753   7.406 -17.020  0.00  0.00    +0.000 C 
ENDROOT
BRANCH   5   6
ATOM      6  N9  NEC     0      -6.017   7.670 -17.711  0.00  0.00    +0.000 N 
ATOM      7  C8  NEC     0      -6.236   8.633 -18.649  0.00  0.00    +0.000 A 
ATOM      8  N7  NEC     0      -7.473   8.587 -19.054  0.00  0.00    +0.000 NA
ATOM      9  C5  NEC     0      -8.123   7.593 -18.403  0.00  0.00    +0.000 A 
ATOM     10  C6  NEC     0      -9.435   7.089 -18.426  0.00  0.00    +0.000 C 
ATOM     11  N1  NEC     0      -9.736   6.071 -17.629  0.00  0.00    +0.000 NA
ATOM     12  C2  NEC     0      -8.832   5.539 -16.828  0.00  0.00    +0.000 C 
ATOM     13  N3  NEC     0      -7.592   5.979 -16.772  0.00  0.00    +0.000 N 
ATOM     14  C4  NEC     0      -7.196   6.990 -17.538  0.00  0.00    +0.000 A 
ATOM     15  H   NEC     0      -6.951   5.554 -16.157  0.00  0.00    +0.000 HD
BRANCH  10  16
ATOM     16  N6  NEC     0     -10.390   7.640 -19.263  0.00  0.00    +0.000 NA
ATOM     17 HN61 NEC     0     -10.722   7.133 -20.020  0.00  0.00    +0.000 HD
ATOM     18 HN62 NEC     0     -10.728   8.532 -19.091  0.00  0.00    +0.000 HD
ENDBRANCH  10  16
ENDBRANCH   5   6
BRANCH   1  19
ATOM     19  C5' NEC     0      -4.146   4.455 -14.986  0.00  0.00    +0.000 C 
ATOM     20  O5' NEC     0      -3.908   3.473 -15.658  0.00  0.00    +0.000 OA
ATOM     21  N5' NEC     0      -4.625   4.316 -13.734  0.00  0.00    +0.000 N 
ATOM     22  HN5 NEC     0      -4.814   5.100 -13.198  0.00  0.00    +0.000 HD
BRANCH  21  23
ATOM     23  C51 NEC     0      -4.858   2.978 -13.185  0.00  0.00    +0.000 C 
ATOM     24  C52 NEC     0      -4.294   2.905 -11.765  0.00  0.00    +0.000 C 
ENDBRANCH  21  23
ENDBRANCH   1  19
BRANCH   3  25
ATOM     25  O3' NEC     0      -3.641   7.296 -13.596  0.00  0.00    +0.000 OA
ATOM     26 HO3' NEC     0      -3.292   8.167 -13.832  0.00  0.00    +0.000 HD
ENDBRANCH   3  25
BRANCH   4  27
ATOM     27  O2' NEC     0      -3.696   9.031 -15.537  0.00  0.00    +0.000 OA
ATOM     28 HO2' NEC     0      -3.781   9.456 -14.672  0.00  0.00    +0.000 HD
ENDBRANCH   4  27
TORSDOF 6
ENDMDL
MODEL 15
REMARK VINA RESULT:      -6.2      7.254     11.077
REMARK  Name = NEC.pdb
REMARK  7 active torsions:
REMARK  status: ('A' for Active; 'I' for Inactive)
REMARK    1  A    between atoms: C5'_1  and  C4'_6
REMARK    2  A    between atoms: N5'_3  and  C51_4
REMARK    3  A    between atoms: C51_4  and  C52_5
REMARK    4  A    between atoms: C3'_8  and  O3'_9
REMARK    5  A    between atoms: C2'_10  and  O2'_11
REMARK    6  A    between atoms: C1'_12  and  N9_13
REMARK    7  A    between atoms: C6_17  and  N6_18
REMARK                            x       y       z     vdW  Elec       q    Type
REMARK                         _______ _______ _______ _____ _____    ______ ____
ROOT
ATOM      1  C4' NEC     0      -6.156   4.654 -17.966  0.00  0.00    +0.000 C 
ATOM      2  O4' NEC     0      -5.019   4.241 -17.179  0.00  0.00    +0.000 OA
ATOM      3  C3' NEC     0      -6.712   5.876 -17.191  0.00  0.00    +0.000 C 
ATOM      4  C2' NEC     0      -6.485   5.453 -15.718  0.00  0.00    +0.000 C 
ATOM      5  C1' NEC     0      -5.396   4.366 -15.799  0.00  0.00    +0.000 C 
ENDROOT
BRANCH   5   6
ATOM      6  N9  NEC     0      -4.235   4.760 -14.998  0.00  0.00    +0.000 N 
ATOM      7  C8  NEC     0      -3.283   5.668 -15.352  0.00  0.00    +0.000 A 
ATOM      8  N7  NEC     0      -2.396   5.775 -14.405  0.00  0.00    +0.000 NA
ATOM      9  C5  NEC     0      -2.723   4.944 -13.386  0.00  0.00    +0.000 A 
ATOM     10  C6  NEC     0      -2.155   4.641 -12.137  0.00  0.00    +0.000 C 
ATOM     11  N1  NEC     0      -2.763   3.748 -11.365  0.00  0.00    +0.000 NA
ATOM     12  C2  NEC     0      -3.874   3.152 -11.754  0.00  0.00    +0.000 C 
ATOM     13  N3  NEC     0      -4.442   3.404 -12.915  0.00  0.00    +0.000 N 
ATOM     14  C4  NEC     0      -3.909   4.288 -13.752  0.00  0.00    +0.000 A 
ATOM     15  H   NEC     0      -5.269   2.933 -13.165  0.00  0.00    +0.000 HD
BRANCH  10  16
ATOM     16  N6  NEC     0      -0.990   5.261 -11.720  0.00  0.00    +0.000 NA
ATOM     17 HN61 NEC     0      -0.478   5.801 -12.342  0.00  0.00    +0.000 HD
ATOM     18 HN62 NEC     0      -0.687   5.157 -10.804  0.00  0.00    +0.000 HD
ENDBRANCH  10  16
ENDBRANCH   5   6
BRANCH   1  19
ATOM     19  C5' NEC     0      -5.724   5.057 -19.352  0.00  0.00    +0.000 C 
ATOM     20  O5' NEC     0      -5.359   4.213 -20.143  0.00  0.00    +0.000 OA
ATOM     21  N5' NEC     0      -5.745   6.355 -19.714  0.00  0.00    +0.000 N 
ATOM     22  HN5 NEC     0      -6.037   7.029 -19.082  0.00  0.00    +0.000 HD
BRANCH  21  23
ATOM     23  C51 NEC     0      -5.326   6.746 -21.062  0.00  0.00    +0.000 C 
ATOM     24  C52 NEC     0      -4.332   7.906 -20.971  0.00  0.00    +0.000 C 
ENDBRANCH  21  23
ENDBRANCH   1  19
BRANCH   3  25
ATOM     25  O3' NEC     0      -8.102   6.067 -17.459  0.00  0.00    +0.000 OA
ATOM     26 HO3' NEC     0      -8.587   5.516 -16.828  0.00  0.00    +0.000 HD
ENDBRANCH   3  25
BRANCH   4  27
ATOM     27  O2' NEC     0      -7.687   4.917 -15.161  0.00  0.00    +0.000 OA
ATOM     28 HO2' NEC     0      -7.421   4.289 -14.475  0.00  0.00    +0.000 HD
ENDBRANCH   4  27
TORSDOF 6
ENDMDL
MODEL 16
REMARK VINA RESULT:      -6.2      2.599      3.653
REMARK  Name = NEC.pdb
REMARK  7 active torsions:
REMARK  status: ('A' for Active; 'I' for Inactive)
REMARK    1  A    between atoms: C5'_1  and  C4'_6
REMARK    2  A    between atoms: N5'_3  and  C51_4
REMARK    3  A    between atoms: C51_4  and  C52_5
REMARK    4  A    between atoms: C3'_8  and  O3'_9
REMARK    5  A    between atoms: C2'_10  and  O2'_11
REMARK    6  A    between atoms: C1'_12  and  N9_13
REMARK    7  A    between atoms: C6_17  and  N6_18
REMARK                            x       y       z     vdW  Elec       q    Type
REMARK                         _______ _______ _______ _____ _____    ______ ____
ROOT
ATOM      1  C4' NEC     0      -2.346   1.795  -9.446  0.00  0.00    +0.000 C 
ATOM      2  O4' NEC     0      -2.532   2.259 -10.800  0.00  0.00    +0.000 OA
ATOM      3  C3' NEC     0      -2.188   3.103  -8.630  0.00  0.00    +0.000 C 
ATOM      4  C2' NEC     0      -1.388   3.999  -9.609  0.00  0.00    +0.000 C 
ATOM      5  C1' NEC     0      -1.636   3.365 -10.991  0.00  0.00    +0.000 C 
ENDROOT
BRANCH   5   6
ATOM      6  N9  NEC     0      -2.242   4.348 -11.891  0.00  0.00    +0.000 N 
ATOM      7  C8  NEC     0      -1.709   5.550 -12.249  0.00  0.00    +0.000 A 
ATOM      8  N7  NEC     0      -2.514   6.170 -13.063  0.00  0.00    +0.000 NA
ATOM      9  C5  NEC     0      -3.612   5.406 -13.278  0.00  0.00    +0.000 A 
ATOM     10  C6  NEC     0      -4.783   5.552 -14.042  0.00  0.00    +0.000 C 
ATOM     11  N1  NEC     0      -5.679   4.572 -14.020  0.00  0.00    +0.000 NA
ATOM     12  C2  NEC     0      -5.483   3.483 -13.300  0.00  0.00    +0.000 C 
ATOM     13  N3  NEC     0      -4.403   3.303 -12.570  0.00  0.00    +0.000 N 
ATOM     14  C4  NEC     0      -3.448   4.227 -12.534  0.00  0.00    +0.000 A 
ATOM     15  H   NEC     0      -4.301   2.476 -12.045  0.00  0.00    +0.000 HD
BRANCH  10  16
ATOM     16  N6  NEC     0      -4.996   6.689 -14.800  0.00  0.00    +0.000 NA
ATOM     17 HN61 NEC     0      -5.434   6.622 -15.663  0.00  0.00    +0.000 HD
ATOM     18 HN62 NEC     0      -4.710   7.554 -14.468  0.00  0.00    +0.000 HD
ENDBRANCH  10  16
ENDBRANCH   5   6
BRANCH   1  19
ATOM     19  C5' NEC     0      -3.552   1.021  -8.979  0.00  0.00    +0.000 C 
ATOM     20  O5' NEC     0      -4.653   1.302  -9.404  0.00  0.00    +0.000 OA
ATOM     21  N5' NEC     0      -3.407   0.018  -8.092  0.00  0.00    +0.000 N 
ATOM     22  HN5 NEC     0      -2.527  -0.207  -7.753  0.00  0.00    +0.000 HD
BRANCH  21  23
ATOM     23  C51 NEC     0      -4.580  -0.735  -7.641  0.00  0.00    +0.000 C 
ATOM     24  C52 NEC     0      -4.378  -1.170  -6.188  0.00  0.00    +0.000 C 
ENDBRANCH  21  23
ENDBRANCH   1  19
BRANCH   3  25
ATOM     25  O3' NEC     0      -1.451   2.875  -7.428  0.00  0.00    +0.000 OA
ATOM     26 HO3' NEC     0      -0.528   3.092  -7.620  0.00  0.00    +0.000 HD
ENDBRANCH   3  25
BRANCH   4  27
ATOM     27  O2' NEC     0       0.005   3.971  -9.288  0.00  0.00    +0.000 OA
ATOM     28 HO2' NEC     0       0.468   4.406 -10.017  0.00  0.00    +0.000 HD
ENDBRANCH   4  27
TORSDOF 6
ENDMDL
MODEL 17
REMARK VINA RESULT:      -6.0      6.599      9.102
REMARK  Name = NEC.pdb
REMARK  7 active torsions:
REMARK  status: ('A' for Active; 'I' for Inactive)
REMARK    1  A    between atoms: C5'_1  and  C4'_6
REMARK    2  A    between atoms: N5'_3  and  C51_4
REMARK    3  A    between atoms: C51_4  and  C52_5
REMARK    4  A    between atoms: C3'_8  and  O3'_9
REMARK    5  A    between atoms: C2'_10  and  O2'_11
REMARK    6  A    between atoms: C1'_12  and  N9_13
REMARK    7  A    between atoms: C6_17  and  N6_18
REMARK                            x       y       z     vdW  Elec       q    Type
REMARK                         _______ _______ _______ _____ _____    ______ ____
ROOT
ATOM      1  C4' NEC     0      -4.309   4.209 -14.085  0.00  0.00    +0.000 C 
ATOM      2  O4' NEC     0      -5.395   4.163 -15.035  0.00  0.00    +0.000 OA
ATOM      3  C3' NEC     0      -4.229   5.707 -13.695  0.00  0.00    +0.000 C 
ATOM      4  C2' NEC     0      -4.549   6.407 -15.040  0.00  0.00    +0.000 C 
ATOM      5  C1' NEC     0      -5.277   5.329 -15.865  0.00  0.00    +0.000 C 
ENDROOT
BRANCH   5   6
ATOM      6  N9  NEC     0      -6.607   5.805 -16.249  0.00  0.00    +0.000 N 
ATOM      7  C8  NEC     0      -7.797   5.338 -15.779  0.00  0.00    +0.000 A 
ATOM      8  N7  NEC     0      -8.781   5.986 -16.333  0.00  0.00    +0.000 NA
ATOM      9  C5  NEC     0      -8.284   6.909 -17.192  0.00  0.00    +0.000 A 
ATOM     10  C6  NEC     0      -8.851   7.870 -18.046  0.00  0.00    +0.000 C 
ATOM     11  N1  NEC     0      -8.039   8.633 -18.769  0.00  0.00    +0.000 NA
ATOM     12  C2  NEC     0      -6.728   8.497 -18.694  0.00  0.00    +0.000 C 
ATOM     13  N3  NEC     0      -6.153   7.611 -17.909  0.00  0.00    +0.000 N 
ATOM     14  C4  NEC     0      -6.885   6.808 -17.144  0.00  0.00    +0.000 A 
ATOM     15  H   NEC     0      -5.171   7.542 -17.889  0.00  0.00    +0.000 HD
BRANCH  10  16
ATOM     16  N6  NEC     0     -10.224   8.020 -18.130  0.00  0.00    +0.000 NA
ATOM     17 HN61 NEC     0     -10.795   7.239 -18.205  0.00  0.00    +0.000 HD
ATOM     18 HN62 NEC     0     -10.617   8.907 -18.113  0.00  0.00    +0.000 HD
ENDBRANCH  10  16
ENDBRANCH   5   6
BRANCH   1  19
ATOM     19  C5' NEC     0      -4.623   3.363 -12.878  0.00  0.00    +0.000 C 
ATOM     20  O5' NEC     0      -5.678   2.767 -12.814  0.00  0.00    +0.000 OA
ATOM     21  N5' NEC     0      -3.732   3.267 -11.872  0.00  0.00    +0.000 N 
ATOM     22  HN5 NEC     0      -2.889   3.743 -11.924  0.00  0.00    +0.000 HD
BRANCH  21  23
ATOM     23  C51 NEC     0      -4.037   2.444 -10.700  0.00  0.00    +0.000 C 
ATOM     24  C52 NEC     0      -2.758   2.211  -9.893  0.00  0.00    +0.000 C 
ENDBRANCH  21  23
ENDBRANCH   1  19
BRANCH   3  25
ATOM     25  O3' NEC     0      -2.919   6.051 -13.240  0.00  0.00    +0.000 OA
ATOM     26 HO3' NEC     0      -2.743   6.951 -13.548  0.00  0.00    +0.000 HD
ENDBRANCH   3  25
BRANCH   4  27
ATOM     27  O2' NEC     0      -3.343   6.810 -15.693  0.00  0.00    +0.000 OA
ATOM     28 HO2' NEC     0      -3.449   7.743 -15.924  0.00  0.00    +0.000 HD
ENDBRANCH   4  27
TORSDOF 6
ENDMDL
MODEL 18
REMARK VINA RESULT:      -6.0      2.615      3.817
REMARK  Name = NEC.pdb
REMARK  7 active torsions:
REMARK  status: ('A' for Active; 'I' for Inactive)
REMARK    1  A    between atoms: C5'_1  and  C4'_6
REMARK    2  A    between atoms: N5'_3  and  C51_4
REMARK    3  A    between atoms: C51_4  and  C52_5
REMARK    4  A    between atoms: C3'_8  and  O3'_9
REMARK    5  A    between atoms: C2'_10  and  O2'_11
REMARK    6  A    between atoms: C1'_12  and  N9_13
REMARK    7  A    between atoms: C6_17  and  N6_18
REMARK                            x       y       z     vdW  Elec       q    Type
REMARK                         _______ _______ _______ _____ _____    ______ ____
ROOT
ATOM      1  C4' NEC     0      -1.975   1.322  -8.546  0.00  0.00    +0.000 C 
ATOM      2  O4' NEC     0      -1.739   1.790  -9.890  0.00  0.00    +0.000 OA
ATOM      3  C3' NEC     0      -2.125   2.629  -7.726  0.00  0.00    +0.000 C 
ATOM      4  C2' NEC     0      -1.085   3.556  -8.405  0.00  0.00    +0.000 C 
ATOM      5  C1' NEC     0      -0.864   2.925  -9.792  0.00  0.00    +0.000 C 
ENDROOT
BRANCH   5   6
ATOM      6  N9  NEC     0      -1.186   3.894 -10.841  0.00  0.00    +0.000 N 
ATOM      7  C8  NEC     0      -0.405   4.937 -11.242  0.00  0.00    +0.000 A 
ATOM      8  N7  NEC     0      -0.998   5.596 -12.196  0.00  0.00    +0.000 NA
ATOM      9  C5  NEC     0      -2.194   5.018 -12.466  0.00  0.00    +0.000 A 
ATOM     10  C6  NEC     0      -3.237   5.284 -13.369  0.00  0.00    +0.000 C 
ATOM     11  N1  NEC     0      -4.298   4.485 -13.363  0.00  0.00    +0.000 NA
ATOM     12  C2  NEC     0      -4.380   3.464 -12.530  0.00  0.00    +0.000 C 
ATOM     13  N3  NEC     0      -3.428   3.178 -11.667  0.00  0.00    +0.000 N 
ATOM     14  C4  NEC     0      -2.325   3.918 -11.605  0.00  0.00    +0.000 A 
ATOM     15  H   NEC     0      -3.533   2.409 -11.062  0.00  0.00    +0.000 HD
BRANCH  10  16
ATOM     16  N6  NEC     0      -3.160   6.351 -14.247  0.00  0.00    +0.000 NA
ATOM     17 HN61 NEC     0      -2.411   6.966 -14.198  0.00  0.00    +0.000 HD
ATOM     18 HN62 NEC     0      -3.854   6.483 -14.911  0.00  0.00    +0.000 HD
ENDBRANCH  10  16
ENDBRANCH   5   6
BRANCH   1  19
ATOM     19  C5' NEC     0      -3.241   0.508  -8.481  0.00  0.00    +0.000 C 
ATOM     20  O5' NEC     0      -3.432  -0.244  -7.549  0.00  0.00    +0.000 OA
ATOM     21  N5' NEC     0      -4.163   0.617  -9.459  0.00  0.00    +0.000 N 
ATOM     22  HN5 NEC     0      -4.010   1.218 -10.203  0.00  0.00    +0.000 HD
BRANCH  21  23
ATOM     23  C51 NEC     0      -5.394  -0.174  -9.395  0.00  0.00    +0.000 C 
ATOM     24  C52 NEC     0      -6.210   0.050 -10.670  0.00  0.00    +0.000 C 
ENDBRANCH  21  23
ENDBRANCH   1  19
BRANCH   3  25
ATOM     25  O3' NEC     0      -1.798   2.415  -6.352  0.00  0.00    +0.000 OA
ATOM     26 HO3' NEC     0      -2.631   2.250  -5.888  0.00  0.00    +0.000 HD
ENDBRANCH   3  25
BRANCH   4  27
ATOM     27  O2' NEC     0       0.135   3.569  -7.660  0.00  0.00    +0.000 OA
ATOM     28 HO2' NEC     0       0.776   3.052  -8.167  0.00  0.00    +0.000 HD
ENDBRANCH   4  27
TORSDOF 6
ENDMDL
MODEL 19
REMARK VINA RESULT:      -5.9      6.353      8.831
REMARK  Name = NEC.pdb
REMARK  7 active torsions:
REMARK  status: ('A' for Active; 'I' for Inactive)
REMARK    1  A    between atoms: C5'_1  and  C4'_6
REMARK    2  A    between atoms: N5'_3  and  C51_4
REMARK    3  A    between atoms: C51_4  and  C52_5
REMARK    4  A    between atoms: C3'_8  and  O3'_9
REMARK    5  A    between atoms: C2'_10  and  O2'_11
REMARK    6  A    between atoms: C1'_12  and  N9_13
REMARK    7  A    between atoms: C6_17  and  N6_18
REMARK                            x       y       z     vdW  Elec       q    Type
REMARK                         _______ _______ _______ _____ _____    ______ ____
ROOT
ATOM      1  C4' NEC     0      -4.133   4.290 -14.116  0.00  0.00    +0.000 C 
ATOM      2  O4' NEC     0      -5.045   4.036 -15.205  0.00  0.00    +0.000 OA
ATOM      3  C3' NEC     0      -4.352   5.792 -13.801  0.00  0.00    +0.000 C 
ATOM      4  C2' NEC     0      -4.577   6.389 -15.213  0.00  0.00    +0.000 C 
ATOM      5  C1' NEC     0      -4.993   5.180 -16.073  0.00  0.00    +0.000 C 
ENDROOT
BRANCH   5   6
ATOM      6  N9  NEC     0      -6.310   5.418 -16.666  0.00  0.00    +0.000 N 
ATOM      7  C8  NEC     0      -7.249   6.296 -16.217  0.00  0.00    +0.000 A 
ATOM      8  N7  NEC     0      -8.303   6.250 -16.981  0.00  0.00    +0.000 NA
ATOM      9  C5  NEC     0      -8.105   5.341 -17.966  0.00  0.00    +0.000 A 
ATOM     10  C6  NEC     0      -8.870   4.878 -19.050  0.00  0.00    +0.000 C 
ATOM     11  N1  NEC     0      -8.346   3.950 -19.843  0.00  0.00    +0.000 NA
ATOM     12  C2  NEC     0      -7.138   3.467 -19.624  0.00  0.00    +0.000 C 
ATOM     13  N3  NEC     0      -6.386   3.870 -18.621  0.00  0.00    +0.000 N 
ATOM     14  C4  NEC     0      -6.823   4.801 -17.779  0.00  0.00    +0.000 A 
ATOM     15  H   NEC     0      -5.492   3.479 -18.494  0.00  0.00    +0.000 HD
BRANCH  10  16
ATOM     16  N6  NEC     0     -10.138   5.379 -19.288  0.00  0.00    +0.000 NA
ATOM     17 HN61 NEC     0     -10.745   5.534 -18.549  0.00  0.00    +0.000 HD
ATOM     18 HN62 NEC     0     -10.418   5.577 -20.196  0.00  0.00    +0.000 HD
ENDBRANCH  10  16
ENDBRANCH   5   6
BRANCH   1  19
ATOM     19  C5' NEC     0      -4.484   3.441 -12.921  0.00  0.00    +0.000 C 
ATOM     20  O5' NEC     0      -5.539   2.844 -12.891  0.00  0.00    +0.000 OA
ATOM     21  N5' NEC     0      -3.624   3.345 -11.888  0.00  0.00    +0.000 N 
ATOM     22  HN5 NEC     0      -2.782   3.823 -11.912  0.00  0.00    +0.000 HD
BRANCH  21  23
ATOM     23  C51 NEC     0      -3.965   2.518 -10.728  0.00  0.00    +0.000 C 
ATOM     24  C52 NEC     0      -2.696   2.210  -9.931  0.00  0.00    +0.000 C 
ENDBRANCH  21  23
ENDBRANCH   1  19
BRANCH   3  25
ATOM     25  O3' NEC     0      -3.195   6.362 -13.184  0.00  0.00    +0.000 OA
ATOM     26 HO3' NEC     0      -3.121   7.269 -13.512  0.00  0.00    +0.000 HD
ENDBRANCH   3  25
BRANCH   4  27
ATOM     27  O2' NEC     0      -3.367   6.965 -15.711  0.00  0.00    +0.000 OA
ATOM     28 HO2' NEC     0      -3.585   7.861 -16.004  0.00  0.00    +0.000 HD
ENDBRANCH   4  27
TORSDOF 6
ENDMDL
MODEL 20
REMARK VINA RESULT:      -5.9      7.388     10.084
REMARK  Name = NEC.pdb
REMARK  7 active torsions:
REMARK  status: ('A' for Active; 'I' for Inactive)
REMARK    1  A    between atoms: C5'_1  and  C4'_6
REMARK    2  A    between atoms: N5'_3  and  C51_4
REMARK    3  A    between atoms: C51_4  and  C52_5
REMARK    4  A    between atoms: C3'_8  and  O3'_9
REMARK    5  A    between atoms: C2'_10  and  O2'_11
REMARK    6  A    between atoms: C1'_12  and  N9_13
REMARK    7  A    between atoms: C6_17  and  N6_18
REMARK                            x       y       z     vdW  Elec       q    Type
REMARK                         _______ _______ _______ _____ _____    ______ ____
ROOT
ATOM      1  C4' NEC     0      -4.491   5.569 -13.835  0.00  0.00    +0.000 C 
ATOM      2  O4' NEC     0      -4.490   6.545 -14.898  0.00  0.00    +0.000 OA
ATOM      3  C3' NEC     0      -5.045   4.291 -14.514  0.00  0.00    +0.000 C 
ATOM      4  C2' NEC     0      -6.109   4.874 -15.478  0.00  0.00    +0.000 C 
ATOM      5  C1' NEC     0      -5.697   6.348 -15.651  0.00  0.00    +0.000 C 
ENDROOT
BRANCH   5   6
ATOM      6  N9  NEC     0      -5.455   6.638 -17.065  0.00  0.00    +0.000 N 
ATOM      7  C8  NEC     0      -5.611   5.770 -18.104  0.00  0.00    +0.000 A 
ATOM      8  N7  NEC     0      -5.308   6.359 -19.226  0.00  0.00    +0.000 NA
ATOM      9  C5  NEC     0      -4.941   7.639 -18.977  0.00  0.00    +0.000 A 
ATOM     10  C6  NEC     0      -4.523   8.719 -19.773  0.00  0.00    +0.000 C 
ATOM     11  N1  NEC     0      -4.235   9.870 -19.177  0.00  0.00    +0.000 NA
ATOM     12  C2  NEC     0      -4.334  10.005 -17.868  0.00  0.00    +0.000 C 
ATOM     13  N3  NEC     0      -4.720   9.022 -17.083  0.00  0.00    +0.000 N 
ATOM     14  C4  NEC     0      -5.037   7.834 -17.590  0.00  0.00    +0.000 A 
ATOM     15  H   NEC     0      -4.776   9.167 -16.111  0.00  0.00    +0.000 HD
BRANCH  10  16
ATOM     16  N6  NEC     0      -4.417   8.587 -21.147  0.00  0.00    +0.000 NA
ATOM     17 HN61 NEC     0      -4.676   7.757 -21.576  0.00  0.00    +0.000 HD
ATOM     18 HN62 NEC     0      -4.085   9.326 -21.680  0.00  0.00    +0.000 HD
ENDBRANCH  10  16
ENDBRANCH   5   6
BRANCH   1  19
ATOM     19  C5' NEC     0      -3.092   5.335 -13.326  0.00  0.00    +0.000 C 
ATOM     20  O5' NEC     0      -2.164   5.957 -13.799  0.00  0.00    +0.000 OA
ATOM     21  N5' NEC     0      -2.873   4.436 -12.347  0.00  0.00    +0.000 N 
ATOM     22  HN5 NEC     0      -3.614   3.940 -11.969  0.00  0.00    +0.000 HD
BRANCH  21  23
ATOM     23  C51 NEC     0      -1.513   4.210 -11.852  0.00  0.00    +0.000 C 
ATOM     24  C52 NEC     0      -1.326   4.943 -10.522  0.00  0.00    +0.000 C 
ENDBRANCH  21  23
ENDBRANCH   1  19
BRANCH   3  25
ATOM     25  O3' NEC     0      -5.648   3.418 -13.556  0.00  0.00    +0.000 OA
ATOM     26 HO3' NEC     0      -6.462   3.849 -13.259  0.00  0.00    +0.000 HD
ENDBRANCH   3  25
BRANCH   4  27
ATOM     27  O2' NEC     0      -7.413   4.783 -14.899  0.00  0.00    +0.000 OA
ATOM     28 HO2' NEC     0      -7.790   3.942 -15.192  0.00  0.00    +0.000 HD
ENDBRANCH   4  27
TORSDOF 6
ENDMDL
