REMARK VINA RESULT:      -6.5      2.779      4.849
REMARK  Name = NEC.pdb
REMARK  7 active torsions:
REMARK  status: ('A' for Active; 'I' for Inactive)
REMARK    1  A    between atoms: C5'_1  and  C4'_6
REMARK    2  A    between atoms: N5'_3  and  C51_4
REMARK    3  A    between atoms: C51_4  and  C52_5
REMARK    4  A    between atoms: C3'_8  and  O3'_9
REMARK    5  A    between atoms: C2'_10  and  O2'_11
REMARK    6  A    between atoms: C1'_12  and  N9_13
REMARK    7  A    between atoms: C6_17  and  N6_18
REMARK                            x       y       z     vdW  Elec       q    Type
REMARK                         _______ _______ _______ _____ _____    ______ ____
ROOT
ATOM      1  C4' NEC     0      -4.460   1.370  -9.434  0.00  0.00    +0.000 C 
ATOM      2  O4' NEC     0      -4.243   2.599 -10.159  0.00  0.00    +0.000 OA
ATOM      3  C3' NEC     0      -4.972   0.392 -10.522  0.00  0.00    +0.000 C 
ATOM      4  C2' NEC     0      -5.843   1.320 -11.406  0.00  0.00    +0.000 C 
ATOM      5  C1' NEC     0      -5.330   2.737 -11.088  0.00  0.00    +0.000 C 
ENDROOT
BRANCH   5   6
ATOM      6  N9  NEC     0      -4.860   3.386 -12.314  0.00  0.00    +0.000 N 
ATOM      7  C8  NEC     0      -5.524   3.441 -13.502  0.00  0.00    +0.000 A 
ATOM      8  N7  NEC     0      -4.816   4.095 -14.378  0.00  0.00    +0.000 NA
ATOM      9  C5  NEC     0      -3.655   4.500 -13.807  0.00  0.00    +0.000 A 
ATOM     10  C6  NEC     0      -2.535   5.222 -14.251  0.00  0.00    +0.000 C 
ATOM     11  N1  NEC     0      -1.546   5.446 -13.395  0.00  0.00    +0.000 NA
ATOM     12  C2  NEC     0      -1.604   5.002 -12.153  0.00  0.00    +0.000 C 
ATOM     13  N3  NEC     0      -2.632   4.321 -11.693  0.00  0.00    +0.000 N 
ATOM     14  C4  NEC     0      -3.673   4.055 -12.476  0.00  0.00    +0.000 A 
ATOM     15  H   NEC     0      -2.631   4.007 -10.760  0.00  0.00    +0.000 HD
BRANCH  10  16
ATOM     16  N6  NEC     0      -2.466   5.692 -15.551  0.00  0.00    +0.000 NA
ATOM     17 HN61 NEC     0      -1.631   6.044 -15.896  0.00  0.00    +0.000 HD
ATOM     18 HN62 NEC     0      -3.252   5.666 -16.118  0.00  0.00    +0.000 HD
ENDBRANCH  10  16
ENDBRANCH   5   6
BRANCH   1  19
ATOM     19  C5' NEC     0      -3.170   0.871  -8.837  0.00  0.00    +0.000 C 
ATOM     20  O5' NEC     0      -2.124   1.425  -9.105  0.00  0.00    +0.000 OA
ATOM     21  N5' NEC     0      -3.178  -0.189  -8.005  0.00  0.00    +0.000 N 
ATOM     22  HN5 NEC     0      -4.013  -0.631  -7.791  0.00  0.00    +0.000 HD
BRANCH  21  23
ATOM     23  C51 NEC     0      -1.924  -0.673  -7.424  0.00  0.00    +0.000 C 
ATOM     24  C52 NEC     0      -1.846  -0.250  -5.956  0.00  0.00    +0.000 C 
ENDBRANCH  21  23
ENDBRANCH   1  19
BRANCH   3  25
ATOM     25  O3' NEC     0      -5.761  -0.651  -9.945  0.00  0.00    +0.000 OA
ATOM     26 HO3' NEC     0      -5.156  -1.213  -9.440  0.00  0.00    +0.000 HD
ENDBRANCH   3  25
BRANCH   4  27
ATOM     27  O2' NEC     0      -7.223   1.196 -11.053  0.00  0.00    +0.000 OA
ATOM     28 HO2' NEC     0      -7.297   0.414 -10.489  0.00  0.00    +0.000 HD
ENDBRANCH   4  27
TORSDOF 6
