REMARK VINA RESULT:      -7.2      3.013      4.994
REMARK  Name = NGI.pdb
REMARK  14 active torsions:
REMARK  status: ('A' for Active; 'I' for Inactive)
REMARK    1  A    between atoms: C1_1  and  C2_4
REMARK    2  A    between atoms: N1_2  and  C2_4
REMARK    3  A    between atoms: N2_5  and  C5_13
REMARK    4  A    between atoms: C3_7  and  C4_10
REMARK    5  A    between atoms: O3_9  and  C6_16
REMARK    6  A    between atoms: N4_11  and  C10_23
REMARK    7  A    between atoms: O4_12  and  C7_19
REMARK    8  A    between atoms: O5_15  and  C20_33
REMARK    9  A    between atoms: N6_17  and  C12_25
REMARK   10  A    between atoms: C12_25  and  C13_26
REMARK   11  A    between atoms: C13_26  and  C14_27
REMARK   12  A    between atoms: C17_30  and  C18_31
REMARK   13  A    between atoms: C18_31  and  C19_32
REMARK   14  A    between atoms: C19_32  and  C20_33
REMARK                            x       y       z     vdW  Elec       q    Type
REMARK                         _______ _______ _______ _____ _____    ______ ____
ROOT
ATOM      1  N2  NGI     0      -6.997   5.790 -16.960  0.00  0.00    +0.000 N 
ATOM      2  N3  NGI     0      -7.964   4.578 -15.423  0.00  0.00    +0.000 NA
ATOM      3  N5  NGI     0      -4.917   5.331 -13.511  0.00  0.00    +0.000 NA
ATOM      4  N6  NGI     0      -3.112   6.626 -14.231  0.00  0.00    +0.000 N 
ATOM      5  N7  NGI     0      -4.948   6.284 -15.626  0.00  0.00    +0.000 N 
ATOM      6  C8  NGI     0      -8.094   5.050 -16.628  0.00  0.00    +0.000 A 
ATOM      7  C9  NGI     0      -6.775   4.977 -14.909  0.00  0.00    +0.000 A 
ATOM      8  C10 NGI     0      -6.112   4.777 -13.684  0.00  0.00    +0.000 C 
ATOM      9  C11 NGI     0      -4.360   6.070 -14.462  0.00  0.00    +0.000 C 
ATOM     10  C23 NGI     0      -6.142   5.761 -15.887  0.00  0.00    +0.000 A 
ATOM     11  HN6 NGI     0      -2.689   7.169 -14.913  0.00  0.00    +0.000 HD
ATOM     12  H   NGI     0      -4.498   6.835 -16.307  0.00  0.00    +0.000 HD
ENDROOT
BRANCH   1  15
ATOM     13  O2  NGI     0      -5.418   6.983 -18.297  0.00  0.00    +0.000 OA
ATOM     14  C4  NGI     0      -5.447   8.027 -19.295  0.00  0.00    +0.000 C 
ATOM     15  C5  NGI     0      -6.771   6.482 -18.230  0.00  0.00    +0.000 C 
ATOM     16  C6  NGI     0      -7.663   7.740 -18.324  0.00  0.00    +0.000 C 
ATOM     17  C7  NGI     0      -6.772   8.780 -19.040  0.00  0.00    +0.000 C 
BRANCH  14  20
ATOM     18  N1  NGI     0      -3.596   9.399 -20.195  0.00  0.00    +0.000 N 
ATOM     19  O1  NGI     0      -3.939   9.304 -18.005  0.00  0.00    +0.000 OA
ATOM     20  C3  NGI     0      -4.274   8.956 -19.118  0.00  0.00    +0.000 C 
ATOM     21  HN1 NGI     0      -3.863   9.120 -21.085  0.00  0.00    +0.000 HD
BRANCH  18  23
ATOM     22  C1  NGI     0      -2.925  11.750 -20.167  0.00  0.00    +0.000 C 
ATOM     23  C2  NGI     0      -2.455  10.301 -20.021  0.00  0.00    +0.000 C 
ENDBRANCH  18  23
ENDBRANCH  14  20
BRANCH  16  24
ATOM     24  O3  NGI     0      -8.834   7.468 -19.096  0.00  0.00    +0.000 OA
ATOM     25  HO3 NGI     0      -9.589   8.030 -18.876  0.00  0.00    +0.000 HD
ENDBRANCH  16  24
BRANCH  17  26
ATOM     26  O4  NGI     0      -7.365   9.181 -20.276  0.00  0.00    +0.000 OA
ATOM     27  HO4 NGI     0      -7.550   8.449 -20.881  0.00  0.00    +0.000 HD
ENDBRANCH  17  26
ENDBRANCH   1  15
BRANCH   8  28
ATOM     28  N4  NGI     0      -6.693   4.021 -12.683  0.00  0.00    +0.000 NA
ATOM     29  HN4 NGI     0      -6.210   3.856 -11.858  0.00  0.00    +0.000 HD
ATOM     30 HN4A NGI     0      -7.583   3.656 -12.804  0.00  0.00    +0.000 HD
ENDBRANCH   8  28
BRANCH   4  31
ATOM     31  C12 NGI     0      -2.431   6.393 -12.955  0.00  0.00    +0.000 C 
BRANCH  31  32
ATOM     32  C13 NGI     0      -1.622   5.097 -13.036  0.00  0.00    +0.000 C 
BRANCH  32  33
ATOM     33  C14 NGI     0      -1.891   4.259 -11.813  0.00  0.00    +0.000 A 
ATOM     34  C15 NGI     0      -0.970   4.225 -10.783  0.00  0.00    +0.000 A 
ATOM     35  C16 NGI     0      -1.216   3.456  -9.660  0.00  0.00    +0.000 A 
ATOM     36  C17 NGI     0      -2.384   2.720  -9.569  0.00  0.00    +0.000 A 
ATOM     37  C21 NGI     0      -3.304   2.755 -10.599  0.00  0.00    +0.000 A 
ATOM     38  C22 NGI     0      -3.061   3.528 -11.718  0.00  0.00    +0.000 A 
BRANCH  36  39
ATOM     39  C18 NGI     0      -2.651   1.883  -8.345  0.00  0.00    +0.000 C 
BRANCH  39  40
ATOM     40  C19 NGI     0      -2.064   2.575  -7.115  0.00  0.00    +0.000 C 
BRANCH  40  42
ATOM     41  O6  NGI     0      -1.897   1.737  -4.918  0.00  0.00    +0.000 OA
ATOM     42  C20 NGI     0      -1.681   1.538  -6.090  0.00  0.00    +0.000 C 
BRANCH  42  43
ATOM     43  O5  NGI     0      -1.099   0.393  -6.481  0.00  0.00    +0.000 OA
ATOM     44  HO5 NGI     0      -0.241   0.464  -6.921  0.00  0.00    +0.000 HD
ENDBRANCH  42  43
ENDBRANCH  40  42
ENDBRANCH  39  40
ENDBRANCH  36  39
ENDBRANCH  32  33
ENDBRANCH  31  32
ENDBRANCH   4  31
TORSDOF 13
