REMARK VINA RESULT:      -6.3      2.434      3.468
REMARK  Name = NGI.pdb
REMARK  14 active torsions:
REMARK  status: ('A' for Active; 'I' for Inactive)
REMARK    1  A    between atoms: C1_1  and  C2_4
REMARK    2  A    between atoms: N1_2  and  C2_4
REMARK    3  A    between atoms: N2_5  and  C5_13
REMARK    4  A    between atoms: C3_7  and  C4_10
REMARK    5  A    between atoms: O3_9  and  C6_16
REMARK    6  A    between atoms: N4_11  and  C10_23
REMARK    7  A    between atoms: O4_12  and  C7_19
REMARK    8  A    between atoms: O5_15  and  C20_33
REMARK    9  A    between atoms: N6_17  and  C12_25
REMARK   10  A    between atoms: C12_25  and  C13_26
REMARK   11  A    between atoms: C13_26  and  C14_27
REMARK   12  A    between atoms: C17_30  and  C18_31
REMARK   13  A    between atoms: C18_31  and  C19_32
REMARK   14  A    between atoms: C19_32  and  C20_33
REMARK                            x       y       z     vdW  Elec       q    Type
REMARK                         _______ _______ _______ _____ _____    ______ ____
ROOT
ATOM      1  N2  NGI     0      -2.288   5.573 -12.694  0.00  0.00    +0.000 N 
ATOM      2  N3  NGI     0      -0.899   5.564 -11.009  0.00  0.00    +0.000 NA
ATOM      3  N5  NGI     0      -2.831   2.613  -9.978  0.00  0.00    +0.000 NA
ATOM      4  N6  NGI     0      -4.646   1.677 -11.112  0.00  0.00    +0.000 N 
ATOM      5  N7  NGI     0      -3.569   3.562 -11.963  0.00  0.00    +0.000 N 
ATOM      6  C8  NGI     0      -1.223   6.189 -12.103  0.00  0.00    +0.000 A 
ATOM      7  C9  NGI     0      -1.737   4.515 -10.825  0.00  0.00    +0.000 A 
ATOM      8  C10 NGI     0      -1.864   3.514  -9.844  0.00  0.00    +0.000 C 
ATOM      9  C11 NGI     0      -3.654   2.640 -11.019  0.00  0.00    +0.000 C 
ATOM     10  C23 NGI     0      -2.635   4.506 -11.904  0.00  0.00    +0.000 A 
ATOM     11  HN6 NGI     0      -5.256   1.680 -11.865  0.00  0.00    +0.000 HD
ATOM     12  H   NGI     0      -4.203   3.548 -12.717  0.00  0.00    +0.000 HD
ENDROOT
BRANCH   1  15
ATOM     13  O2  NGI     0      -4.337   6.274 -13.702  0.00  0.00    +0.000 OA
ATOM     14  C4  NGI     0      -4.972   6.170 -14.995  0.00  0.00    +0.000 C 
ATOM     15  C5  NGI     0      -2.942   5.980 -13.939  0.00  0.00    +0.000 C 
ATOM     16  C6  NGI     0      -2.951   4.810 -14.949  0.00  0.00    +0.000 C 
ATOM     17  C7  NGI     0      -4.318   4.939 -15.659  0.00  0.00    +0.000 C 
BRANCH  14  20
ATOM     18  N1  NGI     0      -7.303   6.352 -15.804  0.00  0.00    +0.000 N 
ATOM     19  O1  NGI     0      -6.885   5.421 -13.833  0.00  0.00    +0.000 OA
ATOM     20  C3  NGI     0      -6.455   5.954 -14.835  0.00  0.00    +0.000 C 
ATOM     21  HN1 NGI     0      -6.959   6.778 -16.604  0.00  0.00    +0.000 HD
BRANCH  18  23
ATOM     22  C1  NGI     0      -9.429   6.272 -17.008  0.00  0.00    +0.000 C 
ATOM     23  C2  NGI     0      -8.744   6.141 -15.647  0.00  0.00    +0.000 C 
ENDBRANCH  18  23
ENDBRANCH  14  20
BRANCH  16  24
ATOM     24  O3  NGI     0      -1.884   4.951 -15.888  0.00  0.00    +0.000 OA
ATOM     25  HO3 NGI     0      -1.358   5.754 -15.768  0.00  0.00    +0.000 HD
ENDBRANCH  16  24
BRANCH  17  26
ATOM     26  O4  NGI     0      -4.135   5.162 -17.059  0.00  0.00    +0.000 OA
ATOM     27  HO4 NGI     0      -4.165   4.357 -17.593  0.00  0.00    +0.000 HD
ENDBRANCH  17  26
ENDBRANCH   1  15
BRANCH   8  28
ATOM     28  N4  NGI     0      -1.001   3.470  -8.765  0.00  0.00    +0.000 NA
ATOM     29  HN4 NGI     0      -0.096   3.810  -8.854  0.00  0.00    +0.000 HD
ATOM     30 HN4A NGI     0      -1.298   3.100  -7.920  0.00  0.00    +0.000 HD
ENDBRANCH   8  28
BRANCH   4  31
ATOM     31  C12 NGI     0      -4.772   0.652 -10.072  0.00  0.00    +0.000 C 
BRANCH  31  32
ATOM     32  C13 NGI     0      -4.339   1.236  -8.725  0.00  0.00    +0.000 C 
BRANCH  32  33
ATOM     33  C14 NGI     0      -3.933   0.117  -7.800  0.00  0.00    +0.000 A 
ATOM     34  C15 NGI     0      -4.864  -0.447  -6.949  0.00  0.00    +0.000 A 
ATOM     35  C16 NGI     0      -4.492  -1.473  -6.100  0.00  0.00    +0.000 A 
ATOM     36  C17 NGI     0      -3.188  -1.933  -6.102  0.00  0.00    +0.000 A 
ATOM     37  C21 NGI     0      -2.258  -1.369  -6.953  0.00  0.00    +0.000 A 
ATOM     38  C22 NGI     0      -2.631  -0.347  -7.807  0.00  0.00    +0.000 A 
BRANCH  36  39
ATOM     39  C18 NGI     0      -2.783  -3.051  -5.177  0.00  0.00    +0.000 C 
BRANCH  39  40
ATOM     40  C19 NGI     0      -1.259  -3.186  -5.175  0.00  0.00    +0.000 C 
BRANCH  40  42
ATOM     41  O6  NGI     0      -0.437  -5.338  -4.676  0.00  0.00    +0.000 OA
ATOM     42  C20 NGI     0      -0.854  -4.293  -4.236  0.00  0.00    +0.000 C 
BRANCH  42  43
ATOM     43  O5  NGI     0      -0.956  -4.116  -2.909  0.00  0.00    +0.000 OA
ATOM     44  HO5 NGI     0      -0.141  -4.190  -2.393  0.00  0.00    +0.000 HD
ENDBRANCH  42  43
ENDBRANCH  40  42
ENDBRANCH  39  40
ENDBRANCH  36  39
ENDBRANCH  32  33
ENDBRANCH  31  32
ENDBRANCH   4  31
TORSDOF 13
