REMARK VINA RESULT:      -6.7      5.464      9.107
REMARK  Name = NEC.pdb
REMARK  7 active torsions:
REMARK  status: ('A' for Active; 'I' for Inactive)
REMARK    1  A    between atoms: C5'_1  and  C4'_6
REMARK    2  A    between atoms: N5'_3  and  C51_4
REMARK    3  A    between atoms: C51_4  and  C52_5
REMARK    4  A    between atoms: C3'_8  and  O3'_9
REMARK    5  A    between atoms: C2'_10  and  O2'_11
REMARK    6  A    between atoms: C1'_12  and  N9_13
REMARK    7  A    between atoms: C6_17  and  N6_18
REMARK                            x       y       z     vdW  Elec       q    Type
REMARK                         _______ _______ _______ _____ _____    ______ ____
ROOT
ATOM      1  C4' NEC     0      -5.008   4.822 -15.539  0.00  0.00    +0.000 C 
ATOM      2  O4' NEC     0      -4.379   4.107 -14.454  0.00  0.00    +0.000 OA
ATOM      3  C3' NEC     0      -4.325   6.213 -15.502  0.00  0.00    +0.000 C 
ATOM      4  C2' NEC     0      -4.152   6.448 -13.981  0.00  0.00    +0.000 C 
ATOM      5  C1' NEC     0      -4.232   5.037 -13.368  0.00  0.00    +0.000 C 
ENDROOT
BRANCH   5   6
ATOM      6  N9  NEC     0      -3.006   4.744 -12.624  0.00  0.00    +0.000 N 
ATOM      7  C8  NEC     0      -1.805   5.370 -12.771  0.00  0.00    +0.000 A 
ATOM      8  N7  NEC     0      -0.933   4.858 -11.951  0.00  0.00    +0.000 NA
ATOM      9  C5  NEC     0      -1.518   3.874 -11.227  0.00  0.00    +0.000 A 
ATOM     10  C6  NEC     0      -1.084   2.996 -10.220  0.00  0.00    +0.000 C 
ATOM     11  N1  NEC     0      -1.955   2.130  -9.716  0.00  0.00    +0.000 NA
ATOM     12  C2  NEC     0      -3.202   2.086 -10.145  0.00  0.00    +0.000 C 
ATOM     13  N3  NEC     0      -3.653   2.889 -11.087  0.00  0.00    +0.000 N 
ATOM     14  C4  NEC     0      -2.856   3.793 -11.646  0.00  0.00    +0.000 A 
ATOM     15  H   NEC     0      -4.591   2.818 -11.379  0.00  0.00    +0.000 HD
BRANCH  10  16
ATOM     16  N6  NEC     0       0.222   3.034  -9.762  0.00  0.00    +0.000 NA
ATOM     17 HN61 NEC     0       0.544   2.349  -9.156  0.00  0.00    +0.000 HD
ATOM     18 HN62 NEC     0       0.815   3.746 -10.048  0.00  0.00    +0.000 HD
ENDBRANCH  10  16
ENDBRANCH   5   6
BRANCH   1  19
ATOM     19  C5' NEC     0      -4.740   4.135 -16.853  0.00  0.00    +0.000 C 
ATOM     20  O5' NEC     0      -3.786   3.394 -16.966  0.00  0.00    +0.000 OA
ATOM     21  N5' NEC     0      -5.562   4.341 -17.901  0.00  0.00    +0.000 N 
ATOM     22  HN5 NEC     0      -6.324   4.933 -17.810  0.00  0.00    +0.000 HD
BRANCH  21  23
ATOM     23  C51 NEC     0      -5.302   3.671 -19.177  0.00  0.00    +0.000 C 
ATOM     24  C52 NEC     0      -6.625   3.201 -19.785  0.00  0.00    +0.000 C 
ENDBRANCH  21  23
ENDBRANCH   1  19
BRANCH   3  25
ATOM     25  O3' NEC     0      -5.165   7.214 -16.081  0.00  0.00    +0.000 OA
ATOM     26 HO3' NEC     0      -5.435   7.802 -15.362  0.00  0.00    +0.000 HD
ENDBRANCH   3  25
BRANCH   4  27
ATOM     27  O2' NEC     0      -5.207   7.272 -13.479  0.00  0.00    +0.000 OA
ATOM     28 HO2' NEC     0      -5.800   7.449 -14.222  0.00  0.00    +0.000 HD
ENDBRANCH   4  27
TORSDOF 6
