REMARK VINA RESULT:      -5.6      7.879     10.733
REMARK  Name = NEC.pdb
REMARK  7 active torsions:
REMARK  status: ('A' for Active; 'I' for Inactive)
REMARK    1  A    between atoms: C5'_1  and  C4'_6
REMARK    2  A    between atoms: N5'_3  and  C51_4
REMARK    3  A    between atoms: C51_4  and  C52_5
REMARK    4  A    between atoms: C3'_8  and  O3'_9
REMARK    5  A    between atoms: C2'_10  and  O2'_11
REMARK    6  A    between atoms: C1'_12  and  N9_13
REMARK    7  A    between atoms: C6_17  and  N6_18
REMARK                            x       y       z     vdW  Elec       q    Type
REMARK                         _______ _______ _______ _____ _____    ______ ____
ROOT
ATOM      1  C4' NEC     0      -3.651   6.418 -16.293  0.00  0.00    +0.000 C 
ATOM      2  O4' NEC     0      -4.429   5.751 -17.309  0.00  0.00    +0.000 OA
ATOM      3  C3' NEC     0      -4.590   7.546 -15.796  0.00  0.00    +0.000 C 
ATOM      4  C2' NEC     0      -5.295   7.978 -17.106  0.00  0.00    +0.000 C 
ATOM      5  C1' NEC     0      -5.118   6.772 -18.048  0.00  0.00    +0.000 C 
ENDROOT
BRANCH   5   6
ATOM      6  N9  NEC     0      -6.427   6.278 -18.480  0.00  0.00    +0.000 N 
ATOM      7  C8  NEC     0      -7.615   6.934 -18.364  0.00  0.00    +0.000 A 
ATOM      8  N7  NEC     0      -8.577   6.204 -18.851  0.00  0.00    +0.000 NA
ATOM      9  C5  NEC     0      -8.067   5.035 -19.309  0.00  0.00    +0.000 A 
ATOM     10  C6  NEC     0      -8.610   3.893 -19.921  0.00  0.00    +0.000 C 
ATOM     11  N1  NEC     0      -7.791   2.902 -20.251  0.00  0.00    +0.000 NA
ATOM     12  C2  NEC     0      -6.495   2.978 -20.013  0.00  0.00    +0.000 C 
ATOM     13  N3  NEC     0      -5.942   4.028 -19.442  0.00  0.00    +0.000 N 
ATOM     14  C4  NEC     0      -6.682   5.072 -19.082  0.00  0.00    +0.000 A 
ATOM     15  H   NEC     0      -4.971   4.040 -19.280  0.00  0.00    +0.000 HD
BRANCH  10  16
ATOM     16  N6  NEC     0      -9.968   3.804 -20.175  0.00  0.00    +0.000 NA
ATOM     17 HN61 NEC     0     -10.513   3.170 -19.684  0.00  0.00    +0.000 HD
ATOM     18 HN62 NEC     0     -10.374   4.377 -20.844  0.00  0.00    +0.000 HD
ENDBRANCH  10  16
ENDBRANCH   5   6
BRANCH   1  19
ATOM     19  C5' NEC     0      -3.321   5.470 -15.169  0.00  0.00    +0.000 C 
ATOM     20  O5' NEC     0      -3.349   4.272 -15.359  0.00  0.00    +0.000 OA
ATOM     21  N5' NEC     0      -2.993   5.952 -13.954  0.00  0.00    +0.000 N 
ATOM     22  HN5 NEC     0      -2.970   6.909 -13.803  0.00  0.00    +0.000 HD
BRANCH  21  23
ATOM     23  C51 NEC     0      -2.671   5.030 -12.863  0.00  0.00    +0.000 C 
ATOM     24  C52 NEC     0      -1.379   5.481 -12.179  0.00  0.00    +0.000 C 
ENDBRANCH  21  23
ENDBRANCH   1  19
BRANCH   3  25
ATOM     25  O3' NEC     0      -3.843   8.629 -15.238  0.00  0.00    +0.000 OA
ATOM     26 HO3' NEC     0      -4.446   9.114 -14.657  0.00  0.00    +0.000 HD
ENDBRANCH   3  25
BRANCH   4  27
ATOM     27  O2' NEC     0      -4.665   9.138 -17.655  0.00  0.00    +0.000 OA
ATOM     28 HO2' NEC     0      -5.045   9.273 -18.534  0.00  0.00    +0.000 HD
ENDBRANCH   4  27
TORSDOF 6
