REMARK VINA RESULT:      -6.0      2.508      3.635
REMARK  Name = NEC.pdb
REMARK  7 active torsions:
REMARK  status: ('A' for Active; 'I' for Inactive)
REMARK    1  A    between atoms: C5'_1  and  C4'_6
REMARK    2  A    between atoms: N5'_3  and  C51_4
REMARK    3  A    between atoms: C51_4  and  C52_5
REMARK    4  A    between atoms: C3'_8  and  O3'_9
REMARK    5  A    between atoms: C2'_10  and  O2'_11
REMARK    6  A    between atoms: C1'_12  and  N9_13
REMARK    7  A    between atoms: C6_17  and  N6_18
REMARK                            x       y       z     vdW  Elec       q    Type
REMARK                         _______ _______ _______ _____ _____    ______ ____
ROOT
ATOM      1  C4' NEC     0      -1.886   1.286  -8.533  0.00  0.00    +0.000 C 
ATOM      2  O4' NEC     0      -1.641   1.761  -9.874  0.00  0.00    +0.000 OA
ATOM      3  C3' NEC     0      -2.122   2.587  -7.724  0.00  0.00    +0.000 C 
ATOM      4  C2' NEC     0      -1.114   3.563  -8.382  0.00  0.00    +0.000 C 
ATOM      5  C1' NEC     0      -0.827   2.939  -9.761  0.00  0.00    +0.000 C 
ENDROOT
BRANCH   5   6
ATOM      6  N9  NEC     0      -1.172   3.887 -10.821  0.00  0.00    +0.000 N 
ATOM      7  C8  NEC     0      -0.408   4.931 -11.248  0.00  0.00    +0.000 A 
ATOM      8  N7  NEC     0      -1.019   5.568 -12.206  0.00  0.00    +0.000 NA
ATOM      9  C5  NEC     0      -2.211   4.973 -12.453  0.00  0.00    +0.000 A 
ATOM     10  C6  NEC     0      -3.268   5.211 -13.348  0.00  0.00    +0.000 C 
ATOM     11  N1  NEC     0      -4.319   4.401 -13.317  0.00  0.00    +0.000 NA
ATOM     12  C2  NEC     0      -4.380   3.393 -12.466  0.00  0.00    +0.000 C 
ATOM     13  N3  NEC     0      -3.415   3.132 -11.609  0.00  0.00    +0.000 N 
ATOM     14  C4  NEC     0      -2.320   3.885 -11.572  0.00  0.00    +0.000 A 
ATOM     15  H   NEC     0      -3.505   2.372 -10.991  0.00  0.00    +0.000 HD
BRANCH  10  16
ATOM     16  N6  NEC     0      -3.213   6.265 -14.244  0.00  0.00    +0.000 NA
ATOM     17 HN61 NEC     0      -2.355   6.593 -14.555  0.00  0.00    +0.000 HD
ATOM     18 HN62 NEC     0      -4.033   6.673 -14.563  0.00  0.00    +0.000 HD
ENDBRANCH  10  16
ENDBRANCH   5   6
BRANCH   1  19
ATOM     19  C5' NEC     0      -3.111   0.410  -8.496  0.00  0.00    +0.000 C 
ATOM     20  O5' NEC     0      -3.159  -0.532  -7.733  0.00  0.00    +0.000 OA
ATOM     21  N5' NEC     0      -4.153   0.673  -9.308  0.00  0.00    +0.000 N 
ATOM     22  HN5 NEC     0      -4.115   1.426  -9.917  0.00  0.00    +0.000 HD
BRANCH  21  23
ATOM     23  C51 NEC     0      -5.344  -0.179  -9.270  0.00  0.00    +0.000 C 
ATOM     24  C52 NEC     0      -6.105  -0.051 -10.591  0.00  0.00    +0.000 C 
ENDBRANCH  21  23
ENDBRANCH   1  19
BRANCH   3  25
ATOM     25  O3' NEC     0      -1.818   2.395  -6.341  0.00  0.00    +0.000 OA
ATOM     26 HO3' NEC     0      -2.145   1.517  -6.102  0.00  0.00    +0.000 HD
ENDBRANCH   3  25
BRANCH   4  27
ATOM     27  O2' NEC     0       0.085   3.640  -7.608  0.00  0.00    +0.000 OA
ATOM     28 HO2' NEC     0       0.092   4.513  -7.191  0.00  0.00    +0.000 HD
ENDBRANCH   4  27
TORSDOF 6
