MODEL 1
REMARK VINA RESULT:      -7.7      0.000      0.000
REMARK  Name = NEC.pdb
REMARK  7 active torsions:
REMARK  status: ('A' for Active; 'I' for Inactive)
REMARK    1  A    between atoms: C5'_1  and  C4'_6
REMARK    2  A    between atoms: N5'_3  and  C51_4
REMARK    3  A    between atoms: C51_4  and  C52_5
REMARK    4  A    between atoms: C3'_8  and  O3'_9
REMARK    5  A    between atoms: C2'_10  and  O2'_11
REMARK    6  A    between atoms: C1'_12  and  N9_13
REMARK    7  A    between atoms: C6_17  and  N6_18
REMARK                            x       y       z     vdW  Elec       q    Type
REMARK                         _______ _______ _______ _____ _____    ______ ____
ROOT
ATOM      1  C4' NEC     0      -1.800   0.282  -6.832  0.00  0.00    +0.000 C 
ATOM      2  O4' NEC     0      -2.085   0.339  -8.245  0.00  0.00    +0.000 OA
ATOM      3  C3' NEC     0      -2.152   1.706  -6.331  0.00  0.00    +0.000 C 
ATOM      4  C2' NEC     0      -1.686   2.589  -7.516  0.00  0.00    +0.000 C 
ATOM      5  C1' NEC     0      -1.637   1.621  -8.713  0.00  0.00    +0.000 C 
ENDROOT
BRANCH   5   6
ATOM      6  N9  NEC     0      -2.518   2.099  -9.781  0.00  0.00    +0.000 N 
ATOM      7  C8  NEC     0      -2.259   3.121 -10.642  0.00  0.00    +0.000 A 
ATOM      8  N7  NEC     0      -3.259   3.277 -11.462  0.00  0.00    +0.000 NA
ATOM      9  C5  NEC     0      -4.220   2.365 -11.178  0.00  0.00    +0.000 A 
ATOM     10  C6  NEC     0      -5.484   2.063 -11.712  0.00  0.00    +0.000 C 
ATOM     11  N1  NEC     0      -6.179   1.070 -11.171  0.00  0.00    +0.000 NA
ATOM     12  C2  NEC     0      -5.702   0.377 -10.154  0.00  0.00    +0.000 C 
ATOM     13  N3  NEC     0      -4.524   0.624  -9.622  0.00  0.00    +0.000 N 
ATOM     14  C4  NEC     0      -3.754   1.595 -10.101  0.00  0.00    +0.000 A 
ATOM     15  H   NEC     0      -4.210   0.083  -8.861  0.00  0.00    +0.000 HD
BRANCH  10  16
ATOM     16  N6  NEC     0      -5.993   2.784 -12.779  0.00  0.00    +0.000 NA
ATOM     17 HN61 NEC     0      -5.462   3.486 -13.187  0.00  0.00    +0.000 HD
ATOM     18 HN62 NEC     0      -6.879   2.585 -13.120  0.00  0.00    +0.000 HD
ENDBRANCH  10  16
ENDBRANCH   5   6
BRANCH   1  19
ATOM     19  C5' NEC     0      -2.667  -0.747  -6.156  0.00  0.00    +0.000 C 
ATOM     20  O5' NEC     0      -3.868  -0.585  -6.099  0.00  0.00    +0.000 OA
ATOM     21  N5' NEC     0      -2.109  -1.849  -5.615  0.00  0.00    +0.000 N 
ATOM     22  HN5 NEC     0      -1.150  -1.978  -5.661  0.00  0.00    +0.000 HD
BRANCH  21  23
ATOM     23  C51 NEC     0      -2.954  -2.850  -4.959  0.00  0.00    +0.000 C 
ATOM     24  C52 NEC     0      -2.263  -3.346  -3.688  0.00  0.00    +0.000 C 
ENDBRANCH  21  23
ENDBRANCH   1  19
BRANCH   3  25
ATOM     25  O3' NEC     0      -1.429   2.027  -5.141  0.00  0.00    +0.000 OA
ATOM     26 HO3' NEC     0      -1.751   2.889  -4.842  0.00  0.00    +0.000 HD
ENDBRANCH   3  25
BRANCH   4  27
ATOM     27  O2' NEC     0      -0.389   3.131  -7.257  0.00  0.00    +0.000 OA
ATOM     28 HO2' NEC     0      -0.420   3.515  -6.369  0.00  0.00    +0.000 HD
ENDBRANCH   4  27
TORSDOF 6
ENDMDL
