REMARK VINA RESULT:      -5.9      6.087      8.553
REMARK  Name = NEC.pdb
REMARK  7 active torsions:
REMARK  status: ('A' for Active; 'I' for Inactive)
REMARK    1  A    between atoms: C5'_1  and  C4'_6
REMARK    2  A    between atoms: N5'_3  and  C51_4
REMARK    3  A    between atoms: C51_4  and  C52_5
REMARK    4  A    between atoms: C3'_8  and  O3'_9
REMARK    5  A    between atoms: C2'_10  and  O2'_11
REMARK    6  A    between atoms: C1'_12  and  N9_13
REMARK    7  A    between atoms: C6_17  and  N6_18
REMARK                            x       y       z     vdW  Elec       q    Type
REMARK                         _______ _______ _______ _____ _____    ______ ____
ROOT
ATOM      1  C4' NEC     0      -4.253   4.079 -13.933  0.00  0.00    +0.000 C 
ATOM      2  O4' NEC     0      -5.283   3.905 -14.929  0.00  0.00    +0.000 OA
ATOM      3  C3' NEC     0      -4.293   5.598 -13.629  0.00  0.00    +0.000 C 
ATOM      4  C2' NEC     0      -4.590   6.199 -15.026  0.00  0.00    +0.000 C 
ATOM      5  C1' NEC     0      -5.200   5.029 -15.819  0.00  0.00    +0.000 C 
ENDROOT
BRANCH   5   6
ATOM      6  N9  NEC     0      -6.538   5.389 -16.293  0.00  0.00    +0.000 N 
ATOM      7  C8  NEC     0      -7.422   6.213 -15.663  0.00  0.00    +0.000 A 
ATOM      8  N7  NEC     0      -8.515   6.313 -16.363  0.00  0.00    +0.000 NA
ATOM      9  C5  NEC     0      -8.401   5.561 -17.485  0.00  0.00    +0.000 A 
ATOM     10  C6  NEC     0      -9.237   5.290 -18.581  0.00  0.00    +0.000 C 
ATOM     11  N1  NEC     0      -8.789   4.481 -19.534  0.00  0.00    +0.000 NA
ATOM     12  C2  NEC     0      -7.588   3.939 -19.461  0.00  0.00    +0.000 C 
ATOM     13  N3  NEC     0      -6.771   4.164 -18.453  0.00  0.00    +0.000 N 
ATOM     14  C4  NEC     0      -7.131   4.965 -17.456  0.00  0.00    +0.000 A 
ATOM     15  H   NEC     0      -5.885   3.734 -18.439  0.00  0.00    +0.000 HD
BRANCH  10  16
ATOM     16  N6  NEC     0     -10.498   5.855 -18.667  0.00  0.00    +0.000 NA
ATOM     17 HN61 NEC     0     -10.994   6.059 -17.860  0.00  0.00    +0.000 HD
ATOM     18 HN62 NEC     0     -10.884   6.048 -19.536  0.00  0.00    +0.000 HD
ENDBRANCH  10  16
ENDBRANCH   5   6
BRANCH   1  19
ATOM     19  C5' NEC     0      -4.571   3.281 -12.695  0.00  0.00    +0.000 C 
ATOM     20  O5' NEC     0      -5.646   2.730 -12.589  0.00  0.00    +0.000 OA
ATOM     21  N5' NEC     0      -3.660   3.180 -11.707  0.00  0.00    +0.000 N 
ATOM     22  HN5 NEC     0      -2.801   3.620 -11.792  0.00  0.00    +0.000 HD
BRANCH  21  23
ATOM     23  C51 NEC     0      -3.969   2.403 -10.504  0.00  0.00    +0.000 C 
ATOM     24  C52 NEC     0      -2.856   2.596  -9.472  0.00  0.00    +0.000 C 
ENDBRANCH  21  23
ENDBRANCH   1  19
BRANCH   3  25
ATOM     25  O3' NEC     0      -3.033   6.057 -13.133  0.00  0.00    +0.000 OA
ATOM     26 HO3' NEC     0      -3.219   6.803 -12.546  0.00  0.00    +0.000 HD
ENDBRANCH   3  25
BRANCH   4  27
ATOM     27  O2' NEC     0      -3.381   6.647 -15.644  0.00  0.00    +0.000 OA
ATOM     28 HO2' NEC     0      -3.539   7.556 -15.937  0.00  0.00    +0.000 HD
ENDBRANCH   4  27
TORSDOF 6
