REMARK VINA RESULT:      -7.0      3.534     11.442
REMARK  Name = NGI.pdb
REMARK  14 active torsions:
REMARK  status: ('A' for Active; 'I' for Inactive)
REMARK    1  A    between atoms: C1_1  and  C2_4
REMARK    2  A    between atoms: N1_2  and  C2_4
REMARK    3  A    between atoms: N2_5  and  C5_13
REMARK    4  A    between atoms: C3_7  and  C4_10
REMARK    5  A    between atoms: O3_9  and  C6_16
REMARK    6  A    between atoms: N4_11  and  C10_23
REMARK    7  A    between atoms: O4_12  and  C7_19
REMARK    8  A    between atoms: O5_15  and  C20_33
REMARK    9  A    between atoms: N6_17  and  C12_25
REMARK   10  A    between atoms: C12_25  and  C13_26
REMARK   11  A    between atoms: C13_26  and  C14_27
REMARK   12  A    between atoms: C17_30  and  C18_31
REMARK   13  A    between atoms: C18_31  and  C19_32
REMARK   14  A    between atoms: C19_32  and  C20_33
REMARK                            x       y       z     vdW  Elec       q    Type
REMARK                         _______ _______ _______ _____ _____    ______ ____
ROOT
ATOM      1  N2  NGI     0      -0.647   2.637  -9.456  0.00  0.00    +0.000 N 
ATOM      2  N3  NGI     0       0.507   4.183 -10.478  0.00  0.00    +0.000 NA
ATOM      3  N5  NGI     0      -2.583   4.610 -12.422  0.00  0.00    +0.000 NA
ATOM      4  N6  NGI     0      -4.569   3.410 -12.152  0.00  0.00    +0.000 N 
ATOM      5  N7  NGI     0      -2.728   2.963 -10.793  0.00  0.00    +0.000 N 
ATOM      6  C8  NGI     0       0.552   3.283  -9.540  0.00  0.00    +0.000 A 
ATOM      7  C9  NGI     0      -0.718   4.167 -11.060  0.00  0.00    +0.000 A 
ATOM      8  C10 NGI     0      -1.327   4.895 -12.098  0.00  0.00    +0.000 C 
ATOM      9  C11 NGI     0      -3.261   3.670 -11.776  0.00  0.00    +0.000 C 
ATOM     10  C23 NGI     0      -1.473   3.178 -10.409  0.00  0.00    +0.000 A 
ATOM     11  HN6 NGI     0      -5.080   2.728 -11.691  0.00  0.00    +0.000 HD
ATOM     12  H   NGI     0      -3.264   2.272 -10.342  0.00  0.00    +0.000 HD
ENDROOT
BRANCH   1  15
ATOM     13  O2  NGI     0      -2.074   0.765  -9.048  0.00  0.00    +0.000 OA
ATOM     14  C4  NGI     0      -2.643   0.096  -7.902  0.00  0.00    +0.000 C 
ATOM     15  C5  NGI     0      -0.988   1.561  -8.524  0.00  0.00    +0.000 C 
ATOM     16  C6  NGI     0      -1.530   2.146  -7.201  0.00  0.00    +0.000 C 
ATOM     17  C7  NGI     0      -2.644   1.160  -6.782  0.00  0.00    +0.000 C 
BRANCH  14  20
ATOM     18  N1  NGI     0      -4.661   0.050  -9.332  0.00  0.00    +0.000 N 
ATOM     19  O1  NGI     0      -4.635  -1.075  -7.420  0.00  0.00    +0.000 OA
ATOM     20  C3  NGI     0      -4.050  -0.352  -8.200  0.00  0.00    +0.000 C 
ATOM     21  HN1 NGI     0      -4.194   0.628  -9.956  0.00  0.00    +0.000 HD
BRANCH  18  23
ATOM     22  C1  NGI     0      -6.553   0.360 -10.849  0.00  0.00    +0.000 C 
ATOM     23  C2  NGI     0      -6.029  -0.386  -9.621  0.00  0.00    +0.000 C 
ENDBRANCH  18  23
ENDBRANCH  14  20
BRANCH  16  24
ATOM     24  O3  NGI     0      -0.500   2.186  -6.212  0.00  0.00    +0.000 OA
ATOM     25  HO3 NGI     0       0.396   2.162  -6.576  0.00  0.00    +0.000 HD
ENDBRANCH  16  24
BRANCH  17  26
ATOM     26  O4  NGI     0      -2.335   0.562  -5.522  0.00  0.00    +0.000 OA
ATOM     27  HO4 NGI     0      -2.363  -0.405  -5.528  0.00  0.00    +0.000 HD
ENDBRANCH  17  26
ENDBRANCH   1  15
BRANCH   8  28
ATOM     28  N4  NGI     0      -0.632   5.886 -12.767  0.00  0.00    +0.000 NA
ATOM     29  HN4 NGI     0      -1.086   6.701 -13.033  0.00  0.00    +0.000 HD
ATOM     30 HN4A NGI     0       0.309   5.767 -12.970  0.00  0.00    +0.000 HD
ENDBRANCH   8  28
BRANCH   4  31
ATOM     31  C12 NGI     0      -5.180   4.168 -13.247  0.00  0.00    +0.000 C 
BRANCH  31  32
ATOM     32  C13 NGI     0      -4.721   3.590 -14.587  0.00  0.00    +0.000 C 
BRANCH  32  33
ATOM     33  C14 NGI     0      -4.805   4.655 -15.650  0.00  0.00    +0.000 A 
ATOM     34  C15 NGI     0      -5.263   4.335 -16.914  0.00  0.00    +0.000 A 
ATOM     35  C16 NGI     0      -5.340   5.312 -17.889  0.00  0.00    +0.000 A 
ATOM     36  C17 NGI     0      -4.958   6.609 -17.599  0.00  0.00    +0.000 A 
ATOM     37  C21 NGI     0      -4.500   6.928 -16.336  0.00  0.00    +0.000 A 
ATOM     38  C22 NGI     0      -4.429   5.953 -15.359  0.00  0.00    +0.000 A 
BRANCH  36  39
ATOM     39  C18 NGI     0      -5.042   7.673 -18.663  0.00  0.00    +0.000 C 
BRANCH  39  40
ATOM     40  C19 NGI     0      -5.395   9.014 -18.016  0.00  0.00    +0.000 C 
BRANCH  40  42
ATOM     41  O6  NGI     0      -4.263  11.041 -17.611  0.00  0.00    +0.000 OA
ATOM     42  C20 NGI     0      -4.224   9.954 -18.138  0.00  0.00    +0.000 C 
BRANCH  42  43
ATOM     43  O5  NGI     0      -3.135   9.583 -18.831  0.00  0.00    +0.000 OA
ATOM     44  HO5 NGI     0      -2.756  10.236 -19.434  0.00  0.00    +0.000 HD
ENDBRANCH  42  43
ENDBRANCH  40  42
ENDBRANCH  39  40
ENDBRANCH  36  39
ENDBRANCH  32  33
ENDBRANCH  31  32
ENDBRANCH   4  31
TORSDOF 13
