REMARK VINA RESULT:      -6.4      1.736      3.387
REMARK  Name = ADN.pdb
REMARK  6 active torsions:
REMARK  status: ('A' for Active; 'I' for Inactive)
REMARK    1  A    between atoms: O5'_1  and  C5'_2
REMARK    2  A    between atoms: C5'_2  and  C4'_3
REMARK    3  A    between atoms: C3'_5  and  O3'_6
REMARK    4  A    between atoms: C2'_7  and  O2'_8
REMARK    5  A    between atoms: C1'_9  and  N9_10
REMARK    6  A    between atoms: C6_14  and  N6_15
REMARK                            x       y       z     vdW  Elec       q    Type
REMARK                         _______ _______ _______ _____ _____    ______ ____
ROOT
ATOM      1  N9  ADN     0      -3.588   2.315  -9.756  0.00  0.00    +0.000 N 
ATOM      2  C8  ADN     0      -4.471   2.314 -10.795  0.00  0.00    +0.000 A 
ATOM      3  N7  ADN     0      -4.018   3.055 -11.765  0.00  0.00    +0.000 NA
ATOM      4  C5  ADN     0      -2.821   3.581 -11.408  0.00  0.00    +0.000 A 
ATOM      5  C6  ADN     0      -1.886   4.423 -12.034  0.00  0.00    +0.000 C 
ATOM      6  N1  ADN     0      -0.779   4.741 -11.374  0.00  0.00    +0.000 NA
ATOM      7  C2  ADN     0      -0.550   4.276 -10.159  0.00  0.00    +0.000 C 
ATOM      8  N3  ADN     0      -1.394   3.480  -9.536  0.00  0.00    +0.000 N 
ATOM      9  C4  ADN     0      -2.529   3.108 -10.119  0.00  0.00    +0.000 A 
ATOM     10  H   ADN     0      -1.181   3.157  -8.631  0.00  0.00    +0.000 HD
ENDROOT
BRANCH   1  15
ATOM     11  C4' ADN     0      -2.602   0.722  -6.700  0.00  0.00    +0.000 C 
ATOM     12  O4' ADN     0      -2.588   1.811  -7.648  0.00  0.00    +0.000 OA
ATOM     13  C3' ADN     0      -3.012  -0.515  -7.528  0.00  0.00    +0.000 C 
ATOM     14  C2' ADN     0      -3.783   0.077  -8.732  0.00  0.00    +0.000 C 
ATOM     15  C1' ADN     0      -3.742   1.601  -8.488  0.00  0.00    +0.000 C 
BRANCH  13  16
ATOM     16  O3' ADN     0      -3.860  -1.372  -6.761  0.00  0.00    +0.000 OA
ATOM     17 HO3' ADN     0      -3.351  -1.648  -5.987  0.00  0.00    +0.000 HD
ENDBRANCH  13  16
BRANCH  14  18
ATOM     18  O2' ADN     0      -5.130  -0.400  -8.746  0.00  0.00    +0.000 OA
ATOM     19 HO2' ADN     0      -5.532  -0.080  -9.565  0.00  0.00    +0.000 HD
ENDBRANCH  14  18
BRANCH  11  20
ATOM     20  C5' ADN     0      -1.210   0.524  -6.095  0.00  0.00    +0.000 C 
BRANCH  20  21
ATOM     21  O5' ADN     0      -1.160  -0.733  -5.417  0.00  0.00    +0.000 OA
ATOM     22 HO5' ADN     0      -1.979  -1.200  -5.635  0.00  0.00    +0.000 HD
ENDBRANCH  20  21
ENDBRANCH  11  20
ENDBRANCH   1  15
BRANCH   5  23
ATOM     23  N6  ADN     0      -2.118   4.915 -13.306  0.00  0.00    +0.000 NA
ATOM     24 HN61 ADN     0      -1.391   5.311 -13.813  0.00  0.00    +0.000 HD
ATOM     25 HN62 ADN     0      -3.006   4.861 -13.694  0.00  0.00    +0.000 HD
ENDBRANCH   5  23
TORSDOF 6
