MODEL 1
REMARK VINA RESULT:      -9.7      0.000      0.000
REMARK  Name = NGI.pdb
REMARK  14 active torsions:
REMARK  status: ('A' for Active; 'I' for Inactive)
REMARK    1  A    between atoms: C1_1  and  C2_4
REMARK    2  A    between atoms: N1_2  and  C2_4
REMARK    3  A    between atoms: N2_5  and  C5_13
REMARK    4  A    between atoms: C3_7  and  C4_10
REMARK    5  A    between atoms: O3_9  and  C6_16
REMARK    6  A    between atoms: N4_11  and  C10_23
REMARK    7  A    between atoms: O4_12  and  C7_19
REMARK    8  A    between atoms: O5_15  and  C20_33
REMARK    9  A    between atoms: N6_17  and  C12_25
REMARK   10  A    between atoms: C12_25  and  C13_26
REMARK   11  A    between atoms: C13_26  and  C14_27
REMARK   12  A    between atoms: C17_30  and  C18_31
REMARK   13  A    between atoms: C18_31  and  C19_32
REMARK   14  A    between atoms: C19_32  and  C20_33
REMARK                            x       y       z     vdW  Elec       q    Type
REMARK                         _______ _______ _______ _____ _____    ______ ____
ROOT
ATOM      1  N2  NGI     0      -4.150   4.882 -15.105  0.00  0.00    +0.000 N 
ATOM      2  N3  NGI     0      -2.373   5.868 -14.309  0.00  0.00    +0.000 NA
ATOM      3  N5  NGI     0      -2.983   3.692 -11.411  0.00  0.00    +0.000 NA
ATOM      4  N6  NGI     0      -4.714   2.141 -11.180  0.00  0.00    +0.000 N 
ATOM      5  N7  NGI     0      -4.525   3.417 -13.122  0.00  0.00    +0.000 N 
ATOM      6  C8  NGI     0      -3.177   5.812 -15.330  0.00  0.00    +0.000 A 
ATOM      7  C9  NGI     0      -2.783   4.987 -13.364  0.00  0.00    +0.000 A 
ATOM      8  C10 NGI     0      -2.318   4.622 -12.087  0.00  0.00    +0.000 C 
ATOM      9  C11 NGI     0      -4.055   3.105 -11.926  0.00  0.00    +0.000 C 
ATOM     10  C23 NGI     0      -3.925   4.342 -13.865  0.00  0.00    +0.000 A 
ATOM     11  HN6 NGI     0      -5.498   1.701 -11.540  0.00  0.00    +0.000 HD
ATOM     12  H   NGI     0      -5.327   2.960 -13.466  0.00  0.00    +0.000 HD
ENDROOT
BRANCH   1  15
ATOM     13  O2  NGI     0      -4.999   5.092 -17.329  0.00  0.00    +0.000 OA
ATOM     14  C4  NGI     0      -6.291   5.124 -17.972  0.00  0.00    +0.000 C 
ATOM     15  C5  NGI     0      -5.239   4.530 -16.020  0.00  0.00    +0.000 C 
ATOM     16  C6  NGI     0      -6.564   5.172 -15.551  0.00  0.00    +0.000 C 
ATOM     17  C7  NGI     0      -7.272   5.572 -16.865  0.00  0.00    +0.000 C 
BRANCH  14  20
ATOM     18  N1  NGI     0      -5.281   6.122 -19.998  0.00  0.00    +0.000 N 
ATOM     19  O1  NGI     0      -7.197   6.917 -19.211  0.00  0.00    +0.000 OA
ATOM     20  C3  NGI     0      -6.290   6.119 -19.104  0.00  0.00    +0.000 C 
ATOM     21  HN1 NGI     0      -4.556   5.484 -19.912  0.00  0.00    +0.000 HD
BRANCH  18  23
ATOM     22  C1  NGI     0      -4.239   8.175 -20.822  0.00  0.00    +0.000 C 
ATOM     23  C2  NGI     0      -5.281   7.089 -21.098  0.00  0.00    +0.000 C 
ENDBRANCH  18  23
ENDBRANCH  14  20
BRANCH  16  24
ATOM     24  O3  NGI     0      -7.351   4.225 -14.827  0.00  0.00    +0.000 OA
ATOM     25  HO3 NGI     0      -7.374   4.380 -13.873  0.00  0.00    +0.000 HD
ENDBRANCH  16  24
BRANCH  17  26
ATOM     26  O4  NGI     0      -8.518   4.884 -16.992  0.00  0.00    +0.000 OA
ATOM     27  HO4 NGI     0      -8.481   3.953 -16.734  0.00  0.00    +0.000 HD
ENDBRANCH  17  26
ENDBRANCH   1  15
BRANCH   8  28
ATOM     28  N4  NGI     0      -1.192   5.218 -11.549  0.00  0.00    +0.000 NA
ATOM     29  HN4 NGI     0      -0.816   4.884 -10.719  0.00  0.00    +0.000 HD
ATOM     30 HN4A NGI     0      -0.779   5.971 -12.000  0.00  0.00    +0.000 HD
ENDBRANCH   8  28
BRANCH   4  31
ATOM     31  C12 NGI     0      -4.223   1.786  -9.846  0.00  0.00    +0.000 C 
BRANCH  31  32
ATOM     32  C13 NGI     0      -4.790   0.424  -9.439  0.00  0.00    +0.000 C 
BRANCH  32  33
ATOM     33  C14 NGI     0      -3.963  -0.150  -8.318  0.00  0.00    +0.000 A 
ATOM     34  C15 NGI     0      -4.570  -0.893  -7.323  0.00  0.00    +0.000 A 
ATOM     35  C16 NGI     0      -3.811  -1.420  -6.294  0.00  0.00    +0.000 A 
ATOM     36  C17 NGI     0      -2.446  -1.202  -6.260  0.00  0.00    +0.000 A 
ATOM     37  C21 NGI     0      -1.840  -0.459  -7.255  0.00  0.00    +0.000 A 
ATOM     38  C22 NGI     0      -2.597   0.062  -8.287  0.00  0.00    +0.000 A 
BRANCH  36  39
ATOM     39  C18 NGI     0      -1.620  -1.777  -5.138  0.00  0.00    +0.000 C 
BRANCH  39  40
ATOM     40  C19 NGI     0      -2.311  -3.023  -4.582  0.00  0.00    +0.000 C 
BRANCH  40  42
ATOM     41  O6  NGI     0      -1.000  -3.974  -2.871  0.00  0.00    +0.000 OA
ATOM     42  C20 NGI     0      -1.274  -3.976  -4.048  0.00  0.00    +0.000 C 
BRANCH  42  43
ATOM     43  O5  NGI     0      -0.655  -4.829  -4.880  0.00  0.00    +0.000 OA
ATOM     44  HO5 NGI     0      -1.213  -5.332  -5.488  0.00  0.00    +0.000 HD
ENDBRANCH  42  43
ENDBRANCH  40  42
ENDBRANCH  39  40
ENDBRANCH  36  39
ENDBRANCH  32  33
ENDBRANCH  31  32
ENDBRANCH   4  31
TORSDOF 13
ENDMDL
