REMARK VINA RESULT:      -6.3      7.566     10.196
REMARK  Name = NEC.pdb
REMARK  7 active torsions:
REMARK  status: ('A' for Active; 'I' for Inactive)
REMARK    1  A    between atoms: C5'_1  and  C4'_6
REMARK    2  A    between atoms: N5'_3  and  C51_4
REMARK    3  A    between atoms: C51_4  and  C52_5
REMARK    4  A    between atoms: C3'_8  and  O3'_9
REMARK    5  A    between atoms: C2'_10  and  O2'_11
REMARK    6  A    between atoms: C1'_12  and  N9_13
REMARK    7  A    between atoms: C6_17  and  N6_18
REMARK                            x       y       z     vdW  Elec       q    Type
REMARK                         _______ _______ _______ _____ _____    ______ ____
ROOT
ATOM      1  C4' NEC     0      -3.904   5.831 -15.552  0.00  0.00    +0.000 C 
ATOM      2  O4' NEC     0      -4.599   5.994 -16.806  0.00  0.00    +0.000 OA
ATOM      3  C3' NEC     0      -4.537   6.913 -14.641  0.00  0.00    +0.000 C 
ATOM      4  C2' NEC     0      -4.759   8.081 -15.635  0.00  0.00    +0.000 C 
ATOM      5  C1' NEC     0      -4.753   7.406 -17.020  0.00  0.00    +0.000 C 
ENDROOT
BRANCH   5   6
ATOM      6  N9  NEC     0      -6.017   7.670 -17.711  0.00  0.00    +0.000 N 
ATOM      7  C8  NEC     0      -6.236   8.633 -18.649  0.00  0.00    +0.000 A 
ATOM      8  N7  NEC     0      -7.473   8.587 -19.054  0.00  0.00    +0.000 NA
ATOM      9  C5  NEC     0      -8.123   7.593 -18.403  0.00  0.00    +0.000 A 
ATOM     10  C6  NEC     0      -9.435   7.089 -18.426  0.00  0.00    +0.000 C 
ATOM     11  N1  NEC     0      -9.736   6.071 -17.629  0.00  0.00    +0.000 NA
ATOM     12  C2  NEC     0      -8.832   5.539 -16.828  0.00  0.00    +0.000 C 
ATOM     13  N3  NEC     0      -7.592   5.979 -16.772  0.00  0.00    +0.000 N 
ATOM     14  C4  NEC     0      -7.196   6.990 -17.538  0.00  0.00    +0.000 A 
ATOM     15  H   NEC     0      -6.951   5.554 -16.157  0.00  0.00    +0.000 HD
BRANCH  10  16
ATOM     16  N6  NEC     0     -10.390   7.640 -19.263  0.00  0.00    +0.000 NA
ATOM     17 HN61 NEC     0     -10.722   7.133 -20.020  0.00  0.00    +0.000 HD
ATOM     18 HN62 NEC     0     -10.728   8.532 -19.091  0.00  0.00    +0.000 HD
ENDBRANCH  10  16
ENDBRANCH   5   6
BRANCH   1  19
ATOM     19  C5' NEC     0      -4.146   4.455 -14.986  0.00  0.00    +0.000 C 
ATOM     20  O5' NEC     0      -3.908   3.473 -15.658  0.00  0.00    +0.000 OA
ATOM     21  N5' NEC     0      -4.625   4.316 -13.734  0.00  0.00    +0.000 N 
ATOM     22  HN5 NEC     0      -4.814   5.100 -13.198  0.00  0.00    +0.000 HD
BRANCH  21  23
ATOM     23  C51 NEC     0      -4.858   2.978 -13.185  0.00  0.00    +0.000 C 
ATOM     24  C52 NEC     0      -4.294   2.905 -11.765  0.00  0.00    +0.000 C 
ENDBRANCH  21  23
ENDBRANCH   1  19
BRANCH   3  25
ATOM     25  O3' NEC     0      -3.641   7.296 -13.596  0.00  0.00    +0.000 OA
ATOM     26 HO3' NEC     0      -3.292   8.167 -13.832  0.00  0.00    +0.000 HD
ENDBRANCH   3  25
BRANCH   4  27
ATOM     27  O2' NEC     0      -3.696   9.031 -15.537  0.00  0.00    +0.000 OA
ATOM     28 HO2' NEC     0      -3.781   9.456 -14.672  0.00  0.00    +0.000 HD
ENDBRANCH   4  27
TORSDOF 6
