REMARK VINA RESULT:      -6.1      1.270      2.167
REMARK  Name = ADN.pdb
REMARK  6 active torsions:
REMARK  status: ('A' for Active; 'I' for Inactive)
REMARK    1  A    between atoms: O5'_1  and  C5'_2
REMARK    2  A    between atoms: C5'_2  and  C4'_3
REMARK    3  A    between atoms: C3'_5  and  O3'_6
REMARK    4  A    between atoms: C2'_7  and  O2'_8
REMARK    5  A    between atoms: C1'_9  and  N9_10
REMARK    6  A    between atoms: C6_14  and  N6_15
REMARK                            x       y       z     vdW  Elec       q    Type
REMARK                         _______ _______ _______ _____ _____    ______ ____
ROOT
ATOM      1  N9  ADN     0      -3.550   1.969  -9.366  0.00  0.00    +0.000 N 
ATOM      2  C8  ADN     0      -2.583   2.840  -9.771  0.00  0.00    +0.000 A 
ATOM      3  N7  ADN     0      -2.863   3.296 -10.957  0.00  0.00    +0.000 NA
ATOM      4  C5  ADN     0      -4.022   2.744 -11.390  0.00  0.00    +0.000 A 
ATOM      5  C6  ADN     0      -4.799   2.864 -12.555  0.00  0.00    +0.000 C 
ATOM      6  N1  ADN     0      -5.921   2.159 -12.643  0.00  0.00    +0.000 NA
ATOM      7  C2  ADN     0      -6.308   1.365 -11.661  0.00  0.00    +0.000 C 
ATOM      8  N3  ADN     0      -5.616   1.226 -10.550  0.00  0.00    +0.000 N 
ATOM      9  C4  ADN     0      -4.480   1.892 -10.372  0.00  0.00    +0.000 A 
ATOM     10  H   ADN     0      -5.944   0.623  -9.844  0.00  0.00    +0.000 HD
ENDROOT
BRANCH   1  15
ATOM     11  C4' ADN     0      -2.295   0.362  -6.418  0.00  0.00    +0.000 C 
ATOM     12  O4' ADN     0      -2.364   1.454  -7.359  0.00  0.00    +0.000 OA
ATOM     13  C3' ADN     0      -2.783  -0.871  -7.209  0.00  0.00    +0.000 C 
ATOM     14  C2' ADN     0      -3.658  -0.272  -8.335  0.00  0.00    +0.000 C 
ATOM     15  C1' ADN     0      -3.591   1.251  -8.092  0.00  0.00    +0.000 C 
BRANCH  13  16
ATOM     16  O3' ADN     0      -3.561  -1.728  -6.371  0.00  0.00    +0.000 OA
ATOM     17 HO3' ADN     0      -3.321  -2.636  -6.602  0.00  0.00    +0.000 HD
ENDBRANCH  13  16
BRANCH  14  18
ATOM     18  O2' ADN     0      -5.002  -0.745  -8.228  0.00  0.00    +0.000 OA
ATOM     19 HO2' ADN     0      -5.286  -0.581  -7.318  0.00  0.00    +0.000 HD
ENDBRANCH  14  18
BRANCH  11  20
ATOM     20  C5' ADN     0      -0.855   0.157  -5.943  0.00  0.00    +0.000 C 
BRANCH  20  21
ATOM     21  O5' ADN     0      -0.478  -1.207  -6.138  0.00  0.00    +0.000 OA
ATOM     22 HO5' ADN     0      -0.958  -1.726  -5.478  0.00  0.00    +0.000 HD
ENDBRANCH  20  21
ENDBRANCH  11  20
ENDBRANCH   1  15
BRANCH   5  23
ATOM     23  N6  ADN     0      -4.401   3.693 -13.589  0.00  0.00    +0.000 NA
ATOM     24 HN61 ADN     0      -4.982   3.827 -14.354  0.00  0.00    +0.000 HD
ATOM     25 HN62 ADN     0      -3.543   4.144 -13.547  0.00  0.00    +0.000 HD
ENDBRANCH   5  23
TORSDOF 6
