REMARK VINA RESULT:      -6.5      3.790      5.732
REMARK  Name = NEC.pdb
REMARK  7 active torsions:
REMARK  status: ('A' for Active; 'I' for Inactive)
REMARK    1  A    between atoms: C5'_1  and  C4'_6
REMARK    2  A    between atoms: N5'_3  and  C51_4
REMARK    3  A    between atoms: C51_4  and  C52_5
REMARK    4  A    between atoms: C3'_8  and  O3'_9
REMARK    5  A    between atoms: C2'_10  and  O2'_11
REMARK    6  A    between atoms: C1'_12  and  N9_13
REMARK    7  A    between atoms: C6_17  and  N6_18
REMARK                            x       y       z     vdW  Elec       q    Type
REMARK                         _______ _______ _______ _____ _____    ______ ____
ROOT
ATOM      1  C4' NEC     0      -1.582   3.639 -10.694  0.00  0.00    +0.000 C 
ATOM      2  O4' NEC     0      -2.432   3.342 -11.822  0.00  0.00    +0.000 OA
ATOM      3  C3' NEC     0      -1.839   5.145 -10.431  0.00  0.00    +0.000 C 
ATOM      4  C2' NEC     0      -2.000   5.701 -11.868  0.00  0.00    +0.000 C 
ATOM      5  C1' NEC     0      -2.351   4.463 -12.715  0.00  0.00    +0.000 C 
ENDROOT
BRANCH   5   6
ATOM      6  N9  NEC     0      -3.640   4.663 -13.382  0.00  0.00    +0.000 N 
ATOM      7  C8  NEC     0      -4.783   3.958 -13.154  0.00  0.00    +0.000 A 
ATOM      8  N7  NEC     0      -5.738   4.399 -13.921  0.00  0.00    +0.000 NA
ATOM      9  C5  NEC     0      -5.269   5.412 -14.688  0.00  0.00    +0.000 A 
ATOM     10  C6  NEC     0      -5.826   6.247 -15.671  0.00  0.00    +0.000 C 
ATOM     11  N1  NEC     0      -5.051   7.166 -16.235  0.00  0.00    +0.000 NA
ATOM     12  C2  NEC     0      -3.785   7.299 -15.886  0.00  0.00    +0.000 C 
ATOM     13  N3  NEC     0      -3.220   6.540 -14.971  0.00  0.00    +0.000 N 
ATOM     14  C4  NEC     0      -3.920   5.597 -14.347  0.00  0.00    +0.000 A 
ATOM     15  H   NEC     0      -2.271   6.672 -14.745  0.00  0.00    +0.000 HD
BRANCH  10  16
ATOM     16  N6  NEC     0      -7.153   6.115 -16.043  0.00  0.00    +0.000 NA
ATOM     17 HN61 NEC     0      -7.756   5.577 -15.507  0.00  0.00    +0.000 HD
ATOM     18 HN62 NEC     0      -7.480   6.563 -16.839  0.00  0.00    +0.000 HD
ENDBRANCH  10  16
ENDBRANCH   5   6
BRANCH   1  19
ATOM     19  C5' NEC     0      -1.980   2.816  -9.496  0.00  0.00    +0.000 C 
ATOM     20  O5' NEC     0      -1.653   3.169  -8.383  0.00  0.00    +0.000 OA
ATOM     21  N5' NEC     0      -2.701   1.690  -9.663  0.00  0.00    +0.000 N 
ATOM     22  HN5 NEC     0      -2.962   1.409 -10.553  0.00  0.00    +0.000 HD
BRANCH  21  23
ATOM     23  C51 NEC     0      -3.090   0.891  -8.498  0.00  0.00    +0.000 C 
ATOM     24  C52 NEC     0      -4.290   0.014  -8.859  0.00  0.00    +0.000 C 
ENDBRANCH  21  23
ENDBRANCH   1  19
BRANCH   3  25
ATOM     25  O3' NEC     0      -0.725   5.750  -9.771  0.00  0.00    +0.000 OA
ATOM     26 HO3' NEC     0      -1.087   6.322  -9.079  0.00  0.00    +0.000 HD
ENDBRANCH   3  25
BRANCH   4  27
ATOM     27  O2' NEC     0      -0.775   6.284 -12.318  0.00  0.00    +0.000 OA
ATOM     28 HO2' NEC     0      -0.524   6.948 -11.661  0.00  0.00    +0.000 HD
ENDBRANCH   4  27
TORSDOF 6
