REMARK VINA RESULT:      -8.3      3.015     12.364
REMARK  Name = NGI.pdb
REMARK  14 active torsions:
REMARK  status: ('A' for Active; 'I' for Inactive)
REMARK    1  A    between atoms: C1_1  and  C2_4
REMARK    2  A    between atoms: N1_2  and  C2_4
REMARK    3  A    between atoms: N2_5  and  C5_13
REMARK    4  A    between atoms: C3_7  and  C4_10
REMARK    5  A    between atoms: O3_9  and  C6_16
REMARK    6  A    between atoms: N4_11  and  C10_23
REMARK    7  A    between atoms: O4_12  and  C7_19
REMARK    8  A    between atoms: O5_15  and  C20_33
REMARK    9  A    between atoms: N6_17  and  C12_25
REMARK   10  A    between atoms: C12_25  and  C13_26
REMARK   11  A    between atoms: C13_26  and  C14_27
REMARK   12  A    between atoms: C17_30  and  C18_31
REMARK   13  A    between atoms: C18_31  and  C19_32
REMARK   14  A    between atoms: C19_32  and  C20_33
REMARK                            x       y       z     vdW  Elec       q    Type
REMARK                         _______ _______ _______ _____ _____    ______ ____
ROOT
ATOM      1  N2  NGI     0      -2.267   2.678  -8.824  0.00  0.00    +0.000 N 
ATOM      2  N3  NGI     0      -0.604   3.961  -9.416  0.00  0.00    +0.000 NA
ATOM      3  N5  NGI     0      -2.640   4.491 -12.430  0.00  0.00    +0.000 NA
ATOM      4  N6  NGI     0      -4.731   3.552 -12.874  0.00  0.00    +0.000 N 
ATOM      5  N7  NGI     0      -3.621   3.069 -10.881  0.00  0.00    +0.000 N 
ATOM      6  C8  NGI     0      -1.045   3.176  -8.478  0.00  0.00    +0.000 A 
ATOM      7  C9  NGI     0      -1.508   4.011 -10.425  0.00  0.00    +0.000 A 
ATOM      8  C10 NGI     0      -1.571   4.675 -11.664  0.00  0.00    +0.000 C 
ATOM      9  C11 NGI     0      -3.639   3.711 -12.037  0.00  0.00    +0.000 C 
ATOM     10  C23 NGI     0      -2.587   3.191 -10.055  0.00  0.00    +0.000 A 
ATOM     11  HN6 NGI     0      -5.471   2.986 -12.604  0.00  0.00    +0.000 HD
ATOM     12  H   NGI     0      -4.382   2.496 -10.630  0.00  0.00    +0.000 HD
ENDROOT
BRANCH   1  15
ATOM     13  O2  NGI     0      -2.291   1.155  -6.983  0.00  0.00    +0.000 OA
ATOM     14  C4  NGI     0      -3.006  -0.041  -6.606  0.00  0.00    +0.000 C 
ATOM     15  C5  NGI     0      -3.085   1.759  -8.028  0.00  0.00    +0.000 C 
ATOM     16  C6  NGI     0      -3.563   0.574  -8.897  0.00  0.00    +0.000 C 
ATOM     17  C7  NGI     0      -3.509  -0.638  -7.940  0.00  0.00    +0.000 C 
BRANCH  14  20
ATOM     18  N1  NGI     0      -2.544  -2.206  -5.501  0.00  0.00    +0.000 N 
ATOM     19  O1  NGI     0      -0.920  -0.712  -5.730  0.00  0.00    +0.000 OA
ATOM     20  C3  NGI     0      -2.081  -1.010  -5.915  0.00  0.00    +0.000 C 
ATOM     21  HN1 NGI     0      -3.473  -2.444  -5.649  0.00  0.00    +0.000 HD
BRANCH  18  23
ATOM     22  C1  NGI     0      -2.230  -3.527  -3.468  0.00  0.00    +0.000 C 
ATOM     23  C2  NGI     0      -1.645  -3.147  -4.829  0.00  0.00    +0.000 C 
ENDBRANCH  18  23
ENDBRANCH  14  20
BRANCH  16  24
ATOM     24  O3  NGI     0      -4.899   0.794  -9.352  0.00  0.00    +0.000 OA
ATOM     25  HO3 NGI     0      -5.202   1.707  -9.255  0.00  0.00    +0.000 HD
ENDBRANCH  16  24
BRANCH  17  26
ATOM     26  O4  NGI     0      -4.811  -1.203  -7.775  0.00  0.00    +0.000 OA
ATOM     27  HO4 NGI     0      -4.807  -2.148  -7.565  0.00  0.00    +0.000 HD
ENDBRANCH  17  26
ENDBRANCH   1  15
BRANCH   8  28
ATOM     28  N4  NGI     0      -0.540   5.501 -12.073  0.00  0.00    +0.000 NA
ATOM     29  HN4 NGI     0       0.355   5.370 -11.723  0.00  0.00    +0.000 HD
ATOM     30 HN4A NGI     0      -0.712   6.213 -12.709  0.00  0.00    +0.000 HD
ENDBRANCH   8  28
BRANCH   4  31
ATOM     31  C12 NGI     0      -4.770   4.240 -14.167  0.00  0.00    +0.000 C 
BRANCH  31  32
ATOM     32  C13 NGI     0      -5.589   5.526 -14.037  0.00  0.00    +0.000 C 
BRANCH  32  33
ATOM     33  C14 NGI     0      -6.390   5.741 -15.295  0.00  0.00    +0.000 A 
ATOM     34  C15 NGI     0      -7.610   5.110 -15.453  0.00  0.00    +0.000 A 
ATOM     35  C16 NGI     0      -8.345   5.308 -16.607  0.00  0.00    +0.000 A 
ATOM     36  C17 NGI     0      -7.860   6.135 -17.603  0.00  0.00    +0.000 A 
ATOM     37  C21 NGI     0      -6.640   6.765 -17.445  0.00  0.00    +0.000 A 
ATOM     38  C22 NGI     0      -5.908   6.573 -16.288  0.00  0.00    +0.000 A 
BRANCH  36  39
ATOM     39  C18 NGI     0      -8.662   6.349 -18.861  0.00  0.00    +0.000 C 
BRANCH  39  40
ATOM     40  C19 NGI     0     -10.142   6.491 -18.504  0.00  0.00    +0.000 C 
BRANCH  40  42
ATOM     41  O6  NGI     0     -11.082   8.013 -16.969  0.00  0.00    +0.000 OA
ATOM     42  C20 NGI     0     -10.396   7.871 -17.954  0.00  0.00    +0.000 C 
BRANCH  42  43
ATOM     43  O5  NGI     0      -9.859   8.943 -18.559  0.00  0.00    +0.000 OA
ATOM     44  HO5 NGI     0      -9.505   9.638 -17.987  0.00  0.00    +0.000 HD
ENDBRANCH  42  43
ENDBRANCH  40  42
ENDBRANCH  39  40
ENDBRANCH  36  39
ENDBRANCH  32  33
ENDBRANCH  31  32
ENDBRANCH   4  31
TORSDOF 13
