MODEL 1
REMARK VINA RESULT:     -10.3      0.000      0.000
REMARK  Name = 118734345.pdb
REMARK  7 active torsions:
REMARK  status: ('A' for Active; 'I' for Inactive)
REMARK    1  A    between atoms: N_6  and  C_16
REMARK    2  A    between atoms: N_7  and  C_25
REMARK    3  A    between atoms: N_8  and  C_29
REMARK    4  A    between atoms: N_9  and  C_32
REMARK    5  A    between atoms: N_12  and  C_28
REMARK    6  A    between atoms: C_18  and  C_23
REMARK    7  A    between atoms: C_25  and  C_28
REMARK                            x       y       z     vdW  Elec       q    Type
REMARK                         _______ _______ _______ _____ _____    ______ ____
ROOT
ATOM      1  N   LIG     1     -29.428   8.265 -23.755  0.00  0.00    +0.000 N 
ATOM      2  N   LIG     1     -28.878   6.382 -24.811  0.00  0.00    +0.000 NA
ATOM      3  N   LIG     1     -30.018   7.365 -21.578  0.00  0.00    +0.000 NA
ATOM      4  N   LIG     1     -30.484   6.134 -19.672  0.00  0.00    +0.000 NA
ATOM      5  N   LIG     1     -29.760   4.939 -21.522  0.00  0.00    +0.000 NA
ATOM      6  N   LIG     1     -29.014   3.682 -23.417  0.00  0.00    +0.000 NA
ATOM      7  C   LIG     1     -29.602   7.259 -22.848  0.00  0.00    +0.000 A 
ATOM      8  C   LIG     1     -28.992   7.689 -24.918  0.00  0.00    +0.000 A 
ATOM      9  C   LIG     1     -29.255   6.099 -23.523  0.00  0.00    +0.000 A 
ATOM     10  C   LIG     1     -30.066   6.148 -20.992  0.00  0.00    +0.000 A 
ATOM     11  C   LIG     1     -29.345   4.907 -22.812  0.00  0.00    +0.000 A 
ENDROOT
BRANCH   1  16
ATOM     12  O   LIG     1     -30.444  10.303 -24.606  0.00  0.00    +0.000 OA
ATOM     13  O   LIG     1     -27.790  10.529 -22.195  0.00  0.00    +0.000 OA
ATOM     14  O   LIG     1     -29.466  12.590 -22.759  0.00  0.00    +0.000 OA
ATOM     15  C   LIG     1     -28.385  10.555 -23.477  0.00  0.00    +0.000 C 
ATOM     16  C   LIG     1     -29.670   9.739 -23.529  0.00  0.00    +0.000 C 
ATOM     17  C   LIG     1     -28.869  11.936 -23.877  0.00  0.00    +0.000 C 
ATOM     18  C   LIG     1     -29.950  11.619 -24.895  0.00  0.00    +0.000 C 
BRANCH  18  21
ATOM     19  O   LIG     1     -29.179  10.503 -26.855  0.00  0.00    +0.000 OA
ATOM     20  N   LIG     1     -29.242  12.830 -26.833  0.00  0.00    +0.000 NA
ATOM     21  C   LIG     1     -29.424  11.567 -26.294  0.00  0.00    +0.000 C 
BRANCH  20  22
ATOM     22  C   LIG     1     -28.723  13.055 -28.161  0.00  0.00    +0.000 C 
ATOM     23  C   LIG     1     -29.274  14.332 -28.763  0.00  0.00    +0.000 C 
ENDBRANCH  20  22
ENDBRANCH  18  21
ENDBRANCH   1  16
BRANCH   4  24
ATOM     24  C   LIG     1     -30.853   7.320 -18.935  0.00  0.00    +0.000 C 
BRANCH  24  25
ATOM     25  C   LIG     1     -31.104   6.958 -17.476  0.00  0.00    +0.000 C 
BRANCH  25  26
ATOM     26  N   LIG     1     -30.985   5.513 -17.283  0.00  0.00    +0.000 NA
ATOM     27  N   LIG     1     -31.267   3.037 -15.888  0.00  0.00    +0.000 N 
ATOM     28  C   LIG     1     -30.141   5.217 -16.120  0.00  0.00    +0.000 C 
ATOM     29  C   LIG     1     -32.309   4.907 -17.108  0.00  0.00    +0.000 C 
ATOM     30  C   LIG     1     -29.962   3.707 -15.941  0.00  0.00    +0.000 C 
ATOM     31  C   LIG     1     -32.204   3.387 -16.961  0.00  0.00    +0.000 C 
BRANCH  27  33
ATOM     32 CL   LIG     1     -31.544  -2.307 -13.379  0.00  0.00    +0.000 Cl
ATOM     33  C   LIG     1     -31.332   1.772 -15.294  0.00  0.00    +0.000 A 
ATOM     34  C   LIG     1     -31.801   0.681 -16.026  0.00  0.00    +0.000 A 
ATOM     35  C   LIG     1     -30.930   1.601 -13.970  0.00  0.00    +0.000 A 
ATOM     36  C   LIG     1     -31.866  -0.581 -15.435  0.00  0.00    +0.000 A 
ATOM     37  C   LIG     1     -30.995   0.340 -13.378  0.00  0.00    +0.000 A 
ATOM     38  C   LIG     1     -31.464  -0.751 -14.110  0.00  0.00    +0.000 A 
ENDBRANCH  27  33
ENDBRANCH  25  26
ENDBRANCH  24  25
ENDBRANCH   4  24
TORSDOF 7
ENDMDL
