REMARK VINA RESULT:      -6.7      4.935      7.488
REMARK  Name = ADN.pdb
REMARK  6 active torsions:
REMARK  status: ('A' for Active; 'I' for Inactive)
REMARK    1  A    between atoms: O5'_1  and  C5'_2
REMARK    2  A    between atoms: C5'_2  and  C4'_3
REMARK    3  A    between atoms: C3'_5  and  O3'_6
REMARK    4  A    between atoms: C2'_7  and  O2'_8
REMARK    5  A    between atoms: C1'_9  and  N9_10
REMARK    6  A    between atoms: C6_14  and  N6_15
REMARK                            x       y       z     vdW  Elec       q    Type
REMARK                         _______ _______ _______ _____ _____    ______ ____
ROOT
ATOM      1  N9  ADN     0      -3.461   4.283 -12.618  0.00  0.00    +0.000 N 
ATOM      2  C8  ADN     0      -2.244   4.434 -12.023  0.00  0.00    +0.000 A 
ATOM      3  N7  ADN     0      -2.117   3.584 -11.045  0.00  0.00    +0.000 NA
ATOM      4  C5  ADN     0      -3.244   2.839 -10.948  0.00  0.00    +0.000 A 
ATOM      5  C6  ADN     0      -3.666   1.790 -10.112  0.00  0.00    +0.000 C 
ATOM      6  N1  ADN     0      -4.871   1.270 -10.309  0.00  0.00    +0.000 NA
ATOM      7  C2  ADN     0      -5.660   1.716 -11.270  0.00  0.00    +0.000 C 
ATOM      8  N3  ADN     0      -5.305   2.691 -12.081  0.00  0.00    +0.000 N 
ATOM      9  C4  ADN     0      -4.117   3.273 -11.958  0.00  0.00    +0.000 A 
ATOM     10  H   ADN     0      -5.926   2.991 -12.784  0.00  0.00    +0.000 HD
ENDROOT
BRANCH   1  15
ATOM     11  C4' ADN     0      -5.832   5.454 -15.038  0.00  0.00    +0.000 C 
ATOM     12  O4' ADN     0      -5.413   5.140 -13.692  0.00  0.00    +0.000 OA
ATOM     13  C3' ADN     0      -4.927   4.590 -15.943  0.00  0.00    +0.000 C 
ATOM     14  C2' ADN     0      -3.674   4.322 -15.077  0.00  0.00    +0.000 C 
ATOM     15  C1' ADN     0      -3.973   5.053 -13.751  0.00  0.00    +0.000 C 
BRANCH  13  16
ATOM     16  O3' ADN     0      -4.574   5.305 -17.129  0.00  0.00    +0.000 OA
ATOM     17 HO3' ADN     0      -3.688   5.010 -17.380  0.00  0.00    +0.000 HD
ENDBRANCH  13  16
BRANCH  14  18
ATOM     18  O2' ADN     0      -2.509   4.862 -15.704  0.00  0.00    +0.000 OA
ATOM     19 HO2' ADN     0      -2.452   4.462 -16.582  0.00  0.00    +0.000 HD
ENDBRANCH  14  18
BRANCH  11  20
ATOM     20  C5' ADN     0      -7.302   5.082 -15.239  0.00  0.00    +0.000 C 
BRANCH  20  21
ATOM     21  O5' ADN     0      -7.522   4.731 -16.607  0.00  0.00    +0.000 OA
ATOM     22 HO5' ADN     0      -6.667   4.457 -16.966  0.00  0.00    +0.000 HD
ENDBRANCH  20  21
ENDBRANCH  11  20
ENDBRANCH   1  15
BRANCH   5  23
ATOM     23  N6  ADN     0      -2.847   1.317  -9.103  0.00  0.00    +0.000 NA
ATOM     24 HN61 ADN     0      -2.902   0.388  -8.829  0.00  0.00    +0.000 HD
ATOM     25 HN62 ADN     0      -2.215   1.912  -8.671  0.00  0.00    +0.000 HD
ENDBRANCH   5  23
TORSDOF 6
