REMARK VINA RESULT:      -8.5      3.031     12.204
REMARK  Name = NGI.pdb
REMARK  14 active torsions:
REMARK  status: ('A' for Active; 'I' for Inactive)
REMARK    1  A    between atoms: C1_1  and  C2_4
REMARK    2  A    between atoms: N1_2  and  C2_4
REMARK    3  A    between atoms: N2_5  and  C5_13
REMARK    4  A    between atoms: C3_7  and  C4_10
REMARK    5  A    between atoms: O3_9  and  C6_16
REMARK    6  A    between atoms: N4_11  and  C10_23
REMARK    7  A    between atoms: O4_12  and  C7_19
REMARK    8  A    between atoms: O5_15  and  C20_33
REMARK    9  A    between atoms: N6_17  and  C12_25
REMARK   10  A    between atoms: C12_25  and  C13_26
REMARK   11  A    between atoms: C13_26  and  C14_27
REMARK   12  A    between atoms: C17_30  and  C18_31
REMARK   13  A    between atoms: C18_31  and  C19_32
REMARK   14  A    between atoms: C19_32  and  C20_33
REMARK                            x       y       z     vdW  Elec       q    Type
REMARK                         _______ _______ _______ _____ _____    ______ ____
ROOT
ATOM      1  N2  NGI     0      -2.222   2.356  -8.567  0.00  0.00    +0.000 N 
ATOM      2  N3  NGI     0      -0.503   3.589  -9.106  0.00  0.00    +0.000 NA
ATOM      3  N5  NGI     0      -2.461   4.244 -12.146  0.00  0.00    +0.000 NA
ATOM      4  N6  NGI     0      -4.576   3.388 -12.646  0.00  0.00    +0.000 N 
ATOM      5  N7  NGI     0      -3.522   2.832 -10.642  0.00  0.00    +0.000 N 
ATOM      6  C8  NGI     0      -0.990   2.804  -8.190  0.00  0.00    +0.000 A 
ATOM      7  C9  NGI     0      -1.386   3.688 -10.130  0.00  0.00    +0.000 A 
ATOM      8  C10 NGI     0      -1.401   4.375 -11.357  0.00  0.00    +0.000 C 
ATOM      9  C11 NGI     0      -3.494   3.493 -11.786  0.00  0.00    +0.000 C 
ATOM     10  C23 NGI     0      -2.500   2.901  -9.795  0.00  0.00    +0.000 A 
ATOM     11  HN6 NGI     0      -5.340   2.846 -12.400  0.00  0.00    +0.000 HD
ATOM     12  H   NGI     0      -4.307   2.282 -10.415  0.00  0.00    +0.000 HD
ENDROOT
BRANCH   1  15
ATOM     13  O2  NGI     0      -2.343   0.826  -6.736  0.00  0.00    +0.000 OA
ATOM     14  C4  NGI     0      -3.098  -0.354  -6.389  0.00  0.00    +0.000 C 
ATOM     15  C5  NGI     0      -3.087   1.454  -7.803  0.00  0.00    +0.000 C 
ATOM     16  C6  NGI     0      -3.564   0.284  -8.693  0.00  0.00    +0.000 C 
ATOM     17  C7  NGI     0      -3.571  -0.933  -7.741  0.00  0.00    +0.000 C 
BRANCH  14  20
ATOM     18  N1  NGI     0      -2.707  -2.557  -5.333  0.00  0.00    +0.000 N 
ATOM     19  O1  NGI     0      -1.073  -1.058  -5.400  0.00  0.00    +0.000 OA
ATOM     20  C3  NGI     0      -2.220  -1.348  -5.672  0.00  0.00    +0.000 C 
ATOM     21  HN1 NGI     0      -3.624  -2.789  -5.550  0.00  0.00    +0.000 HD
BRANCH  18  23
ATOM     22  C1  NGI     0      -2.324  -3.667  -3.188  0.00  0.00    +0.000 C 
ATOM     23  C2  NGI     0      -1.853  -3.522  -4.636  0.00  0.00    +0.000 C 
ENDBRANCH  18  23
ENDBRANCH  14  20
BRANCH  16  24
ATOM     24  O3  NGI     0      -4.878   0.538  -9.191  0.00  0.00    +0.000 OA
ATOM     25  HO3 NGI     0      -5.069   0.105 -10.035  0.00  0.00    +0.000 HD
ENDBRANCH  16  24
BRANCH  17  26
ATOM     26  O4  NGI     0      -4.890  -1.468  -7.622  0.00  0.00    +0.000 OA
ATOM     27  HO4 NGI     0      -5.327  -1.258  -6.785  0.00  0.00    +0.000 HD
ENDBRANCH  17  26
ENDBRANCH   1  15
BRANCH   8  28
ATOM     28  N4  NGI     0      -0.334   5.171 -11.733  0.00  0.00    +0.000 NA
ATOM     29  HN4 NGI     0      -0.218   5.419 -12.663  0.00  0.00    +0.000 HD
ATOM     30 HN4A NGI     0       0.299   5.482 -11.067  0.00  0.00    +0.000 HD
ENDBRANCH   8  28
BRANCH   4  31
ATOM     31  C12 NGI     0      -4.565   4.100 -13.927  0.00  0.00    +0.000 C 
BRANCH  31  32
ATOM     32  C13 NGI     0      -5.994   4.502 -14.299  0.00  0.00    +0.000 C 
BRANCH  32  33
ATOM     33  C14 NGI     0      -6.108   4.623 -15.796  0.00  0.00    +0.000 A 
ATOM     34  C15 NGI     0      -5.073   4.193 -16.605  0.00  0.00    +0.000 A 
ATOM     35  C16 NGI     0      -5.178   4.304 -17.979  0.00  0.00    +0.000 A 
ATOM     36  C17 NGI     0      -6.317   4.848 -18.544  0.00  0.00    +0.000 A 
ATOM     37  C21 NGI     0      -7.351   5.278 -17.735  0.00  0.00    +0.000 A 
ATOM     38  C22 NGI     0      -7.250   5.161 -16.362  0.00  0.00    +0.000 A 
BRANCH  36  39
ATOM     39  C18 NGI     0      -6.430   4.968 -20.042  0.00  0.00    +0.000 C 
BRANCH  39  40
ATOM     40  C19 NGI     0      -7.710   4.277 -20.514  0.00  0.00    +0.000 C 
BRANCH  40  42
ATOM     41  O6  NGI     0      -8.308   2.000 -20.609  0.00  0.00    +0.000 OA
ATOM     42  C20 NGI     0      -7.431   2.817 -20.761  0.00  0.00    +0.000 C 
BRANCH  42  43
ATOM     43  O5  NGI     0      -6.208   2.425 -21.150  0.00  0.00    +0.000 OA
ATOM     44  HO5 NGI     0      -5.971   2.578 -22.075  0.00  0.00    +0.000 HD
ENDBRANCH  42  43
ENDBRANCH  40  42
ENDBRANCH  39  40
ENDBRANCH  36  39
ENDBRANCH  32  33
ENDBRANCH  31  32
ENDBRANCH   4  31
TORSDOF 13
