REMARK VINA RESULT:      -9.1      3.251     12.924
REMARK  Name = NGI.pdb
REMARK  14 active torsions:
REMARK  status: ('A' for Active; 'I' for Inactive)
REMARK    1  A    between atoms: C1_1  and  C2_4
REMARK    2  A    between atoms: N1_2  and  C2_4
REMARK    3  A    between atoms: N2_5  and  C5_13
REMARK    4  A    between atoms: C3_7  and  C4_10
REMARK    5  A    between atoms: O3_9  and  C6_16
REMARK    6  A    between atoms: N4_11  and  C10_23
REMARK    7  A    between atoms: O4_12  and  C7_19
REMARK    8  A    between atoms: O5_15  and  C20_33
REMARK    9  A    between atoms: N6_17  and  C12_25
REMARK   10  A    between atoms: C12_25  and  C13_26
REMARK   11  A    between atoms: C13_26  and  C14_27
REMARK   12  A    between atoms: C17_30  and  C18_31
REMARK   13  A    between atoms: C18_31  and  C19_32
REMARK   14  A    between atoms: C19_32  and  C20_33
REMARK                            x       y       z     vdW  Elec       q    Type
REMARK                         _______ _______ _______ _____ _____    ______ ____
ROOT
ATOM      1  N2  NGI     0      -3.865   0.700  -9.147  0.00  0.00    +0.000 N 
ATOM      2  N3  NGI     0      -5.754  -0.173  -9.806  0.00  0.00    +0.000 NA
ATOM      3  N5  NGI     0      -5.607   2.480 -12.345  0.00  0.00    +0.000 NA
ATOM      4  N6  NGI     0      -3.921   4.079 -12.585  0.00  0.00    +0.000 N 
ATOM      5  N7  NGI     0      -3.799   2.482 -10.891  0.00  0.00    +0.000 N 
ATOM      6  C8  NGI     0      -4.800  -0.269  -8.927  0.00  0.00    +0.000 A 
ATOM      7  C9  NGI     0      -5.497   0.866 -10.638  0.00  0.00    +0.000 A 
ATOM      8  C10 NGI     0      -6.157   1.431 -11.745  0.00  0.00    +0.000 C 
ATOM      9  C11 NGI     0      -4.452   2.983 -11.925  0.00  0.00    +0.000 C 
ATOM     10  C23 NGI     0      -4.281   1.436 -10.227  0.00  0.00    +0.000 A 
ATOM     11  HN6 NGI     0      -3.079   4.459 -12.294  0.00  0.00    +0.000 HD
ATOM     12  H   NGI     0      -2.947   2.888 -10.609  0.00  0.00    +0.000 HD
ENDROOT
BRANCH   1  15
ATOM     13  O2  NGI     0      -2.061  -0.346  -7.981  0.00  0.00    +0.000 OA
ATOM     14  C4  NGI     0      -1.209  -0.043  -6.856  0.00  0.00    +0.000 C 
ATOM     15  C5  NGI     0      -2.644   0.918  -8.368  0.00  0.00    +0.000 C 
ATOM     16  C6  NGI     0      -2.975   1.626  -7.035  0.00  0.00    +0.000 C 
ATOM     17  C7  NGI     0      -2.009   0.978  -6.017  0.00  0.00    +0.000 C 
BRANCH  14  20
ATOM     18  N1  NGI     0      -1.925  -1.839  -5.313  0.00  0.00    +0.000 N 
ATOM     19  O1  NGI     0       0.163  -1.793  -6.063  0.00  0.00    +0.000 OA
ATOM     20  C3  NGI     0      -0.941  -1.288  -6.049  0.00  0.00    +0.000 C 
ATOM     21  HN1 NGI     0      -2.807  -1.435  -5.302  0.00  0.00    +0.000 HD
BRANCH  18  23
ATOM     22  C1  NGI     0      -2.890  -3.379  -3.677  0.00  0.00    +0.000 C 
ATOM     23  C2  NGI     0      -1.663  -3.049  -4.529  0.00  0.00    +0.000 C 
ENDBRANCH  18  23
ENDBRANCH  14  20
BRANCH  16  24
ATOM     24  O3  NGI     0      -2.727   3.029  -7.137  0.00  0.00    +0.000 OA
ATOM     25  HO3 NGI     0      -3.101   3.548  -6.412  0.00  0.00    +0.000 HD
ENDBRANCH  16  24
BRANCH  17  26
ATOM     26  O4  NGI     0      -1.136   1.963  -5.460  0.00  0.00    +0.000 OA
ATOM     27  HO4 NGI     0      -1.443   2.873  -5.577  0.00  0.00    +0.000 HD
ENDBRANCH  17  26
ENDBRANCH   1  15
BRANCH   8  28
ATOM     28  N4  NGI     0      -7.353   0.904 -12.197  0.00  0.00    +0.000 NA
ATOM     29  HN4 NGI     0      -7.965   0.485 -11.572  0.00  0.00    +0.000 HD
ATOM     30 HN4A NGI     0      -7.580   0.952 -13.139  0.00  0.00    +0.000 HD
ENDBRANCH   8  28
BRANCH   4  31
ATOM     31  C12 NGI     0      -4.632   4.662 -13.726  0.00  0.00    +0.000 C 
BRANCH  31  32
ATOM     32  C13 NGI     0      -3.782   4.509 -14.989  0.00  0.00    +0.000 C 
BRANCH  32  33
ATOM     33  C14 NGI     0      -4.192   5.548 -16.001  0.00  0.00    +0.000 A 
ATOM     34  C15 NGI     0      -3.901   6.881 -15.779  0.00  0.00    +0.000 A 
ATOM     35  C16 NGI     0      -4.279   7.834 -16.707  0.00  0.00    +0.000 A 
ATOM     36  C17 NGI     0      -4.948   7.454 -17.856  0.00  0.00    +0.000 A 
ATOM     37  C21 NGI     0      -5.239   6.121 -18.077  0.00  0.00    +0.000 A 
ATOM     38  C22 NGI     0      -4.856   5.167 -17.152  0.00  0.00    +0.000 A 
BRANCH  36  39
ATOM     39  C18 NGI     0      -5.359   8.493 -18.866  0.00  0.00    +0.000 C 
BRANCH  39  40
ATOM     40  C19 NGI     0      -4.289   8.597 -19.955  0.00  0.00    +0.000 C 
BRANCH  40  42
ATOM     41  O6  NGI     0      -4.040  10.940 -19.896  0.00  0.00    +0.000 OA
ATOM     42  C20 NGI     0      -3.500   9.867 -19.764  0.00  0.00    +0.000 C 
BRANCH  42  43
ATOM     43  O5  NGI     0      -2.197   9.805 -19.445  0.00  0.00    +0.000 OA
ATOM     44  HO5 NGI     0      -1.571  10.165 -20.088  0.00  0.00    +0.000 HD
ENDBRANCH  42  43
ENDBRANCH  40  42
ENDBRANCH  39  40
ENDBRANCH  36  39
ENDBRANCH  32  33
ENDBRANCH  31  32
ENDBRANCH   4  31
TORSDOF 13
