MODEL 1
REMARK VINA RESULT:      -7.7      0.000      0.000
REMARK  Name = NEC.pdb
REMARK  7 active torsions:
REMARK  status: ('A' for Active; 'I' for Inactive)
REMARK    1  A    between atoms: C5'_1  and  C4'_6
REMARK    2  A    between atoms: N5'_3  and  C51_4
REMARK    3  A    between atoms: C51_4  and  C52_5
REMARK    4  A    between atoms: C3'_8  and  O3'_9
REMARK    5  A    between atoms: C2'_10  and  O2'_11
REMARK    6  A    between atoms: C1'_12  and  N9_13
REMARK    7  A    between atoms: C6_17  and  N6_18
REMARK                            x       y       z     vdW  Elec       q    Type
REMARK                         _______ _______ _______ _____ _____    ______ ____
ROOT
ATOM      1  C4' NEC     0      -1.800   0.282  -6.832  0.00  0.00    +0.000 C 
ATOM      2  O4' NEC     0      -2.085   0.339  -8.245  0.00  0.00    +0.000 OA
ATOM      3  C3' NEC     0      -2.152   1.706  -6.331  0.00  0.00    +0.000 C 
ATOM      4  C2' NEC     0      -1.686   2.589  -7.516  0.00  0.00    +0.000 C 
ATOM      5  C1' NEC     0      -1.637   1.621  -8.713  0.00  0.00    +0.000 C 
ENDROOT
BRANCH   5   6
ATOM      6  N9  NEC     0      -2.518   2.099  -9.781  0.00  0.00    +0.000 N 
ATOM      7  C8  NEC     0      -2.259   3.121 -10.642  0.00  0.00    +0.000 A 
ATOM      8  N7  NEC     0      -3.259   3.277 -11.462  0.00  0.00    +0.000 NA
ATOM      9  C5  NEC     0      -4.220   2.365 -11.178  0.00  0.00    +0.000 A 
ATOM     10  C6  NEC     0      -5.484   2.063 -11.712  0.00  0.00    +0.000 C 
ATOM     11  N1  NEC     0      -6.179   1.070 -11.171  0.00  0.00    +0.000 NA
ATOM     12  C2  NEC     0      -5.702   0.377 -10.154  0.00  0.00    +0.000 C 
ATOM     13  N3  NEC     0      -4.524   0.624  -9.622  0.00  0.00    +0.000 N 
ATOM     14  C4  NEC     0      -3.754   1.595 -10.101  0.00  0.00    +0.000 A 
ATOM     15  H   NEC     0      -4.210   0.083  -8.861  0.00  0.00    +0.000 HD
BRANCH  10  16
ATOM     16  N6  NEC     0      -5.993   2.784 -12.779  0.00  0.00    +0.000 NA
ATOM     17 HN61 NEC     0      -5.462   3.486 -13.187  0.00  0.00    +0.000 HD
ATOM     18 HN62 NEC     0      -6.879   2.585 -13.120  0.00  0.00    +0.000 HD
ENDBRANCH  10  16
ENDBRANCH   5   6
BRANCH   1  19
ATOM     19  C5' NEC     0      -2.667  -0.747  -6.156  0.00  0.00    +0.000 C 
ATOM     20  O5' NEC     0      -3.868  -0.585  -6.099  0.00  0.00    +0.000 OA
ATOM     21  N5' NEC     0      -2.109  -1.849  -5.615  0.00  0.00    +0.000 N 
ATOM     22  HN5 NEC     0      -1.150  -1.978  -5.661  0.00  0.00    +0.000 HD
BRANCH  21  23
ATOM     23  C51 NEC     0      -2.954  -2.850  -4.959  0.00  0.00    +0.000 C 
ATOM     24  C52 NEC     0      -2.263  -3.346  -3.688  0.00  0.00    +0.000 C 
ENDBRANCH  21  23
ENDBRANCH   1  19
BRANCH   3  25
ATOM     25  O3' NEC     0      -1.429   2.027  -5.141  0.00  0.00    +0.000 OA
ATOM     26 HO3' NEC     0      -1.751   2.889  -4.842  0.00  0.00    +0.000 HD
ENDBRANCH   3  25
BRANCH   4  27
ATOM     27  O2' NEC     0      -0.389   3.131  -7.257  0.00  0.00    +0.000 OA
ATOM     28 HO2' NEC     0      -0.420   3.515  -6.369  0.00  0.00    +0.000 HD
ENDBRANCH   4  27
TORSDOF 6
ENDMDL
MODEL 2
REMARK VINA RESULT:      -7.7      0.951      2.059
REMARK  Name = NEC.pdb
REMARK  7 active torsions:
REMARK  status: ('A' for Active; 'I' for Inactive)
REMARK    1  A    between atoms: C5'_1  and  C4'_6
REMARK    2  A    between atoms: N5'_3  and  C51_4
REMARK    3  A    between atoms: C51_4  and  C52_5
REMARK    4  A    between atoms: C3'_8  and  O3'_9
REMARK    5  A    between atoms: C2'_10  and  O2'_11
REMARK    6  A    between atoms: C1'_12  and  N9_13
REMARK    7  A    between atoms: C6_17  and  N6_18
REMARK                            x       y       z     vdW  Elec       q    Type
REMARK                         _______ _______ _______ _____ _____    ______ ____
ROOT
ATOM      1  C4' NEC     0      -1.927  -0.171  -6.509  0.00  0.00    +0.000 C 
ATOM      2  O4' NEC     0      -2.318  -0.169  -7.899  0.00  0.00    +0.000 OA
ATOM      3  C3' NEC     0      -2.398   1.213  -5.996  0.00  0.00    +0.000 C 
ATOM      4  C2' NEC     0      -2.120   2.123  -7.219  0.00  0.00    +0.000 C 
ATOM      5  C1' NEC     0      -2.050   1.147  -8.408  0.00  0.00    +0.000 C 
ENDROOT
BRANCH   5   6
ATOM      6  N9  NEC     0      -3.053   1.507  -9.412  0.00  0.00    +0.000 N 
ATOM      7  C8  NEC     0      -4.290   0.953  -9.550  0.00  0.00    +0.000 A 
ATOM      8  N7  NEC     0      -4.919   1.511 -10.544  0.00  0.00    +0.000 NA
ATOM      9  C5  NEC     0      -4.127   2.457 -11.105  0.00  0.00    +0.000 A 
ATOM     10  C6  NEC     0      -4.267   3.354 -12.177  0.00  0.00    +0.000 C 
ATOM     11  N1  NEC     0      -3.256   4.167 -12.458  0.00  0.00    +0.000 NA
ATOM     12  C2  NEC     0      -2.140   4.139 -11.753  0.00  0.00    +0.000 C 
ATOM     13  N3  NEC     0      -1.964   3.315 -10.741  0.00  0.00    +0.000 N 
ATOM     14  C4  NEC     0      -2.924   2.469 -10.382  0.00  0.00    +0.000 A 
ATOM     15  H   NEC     0      -1.113   3.327 -10.246  0.00  0.00    +0.000 HD
BRANCH  10  16
ATOM     16  N6  NEC     0      -5.433   3.391 -12.921  0.00  0.00    +0.000 NA
ATOM     17 HN61 NEC     0      -5.406   3.219 -13.875  0.00  0.00    +0.000 HD
ATOM     18 HN62 NEC     0      -6.279   3.588 -12.488  0.00  0.00    +0.000 HD
ENDBRANCH  10  16
ENDBRANCH   5   6
BRANCH   1  19
ATOM     19  C5' NEC     0      -2.624  -1.279  -5.763  0.00  0.00    +0.000 C 
ATOM     20  O5' NEC     0      -3.829  -1.396  -5.839  0.00  0.00    +0.000 OA
ATOM     21  N5' NEC     0      -1.909  -2.141  -5.014  0.00  0.00    +0.000 N 
ATOM     22  HN5 NEC     0      -0.946  -2.048  -4.954  0.00  0.00    +0.000 HD
BRANCH  21  23
ATOM     23  C51 NEC     0      -2.587  -3.219  -4.290  0.00  0.00    +0.000 C 
ATOM     24  C52 NEC     0      -1.789  -3.569  -3.033  0.00  0.00    +0.000 C 
ENDBRANCH  21  23
ENDBRANCH   1  19
BRANCH   3  25
ATOM     25  O3' NEC     0      -1.632   1.630  -4.864  0.00  0.00    +0.000 OA
ATOM     26 HO3' NEC     0      -1.785   0.978  -4.166  0.00  0.00    +0.000 HD
ENDBRANCH   3  25
BRANCH   4  27
ATOM     27  O2' NEC     0      -0.876   2.808  -7.059  0.00  0.00    +0.000 OA
ATOM     28 HO2' NEC     0      -1.050   3.575  -6.496  0.00  0.00    +0.000 HD
ENDBRANCH   4  27
TORSDOF 6
ENDMDL
MODEL 3
REMARK VINA RESULT:      -7.3      1.354      2.525
REMARK  Name = NEC.pdb
REMARK  7 active torsions:
REMARK  status: ('A' for Active; 'I' for Inactive)
REMARK    1  A    between atoms: C5'_1  and  C4'_6
REMARK    2  A    between atoms: N5'_3  and  C51_4
REMARK    3  A    between atoms: C51_4  and  C52_5
REMARK    4  A    between atoms: C3'_8  and  O3'_9
REMARK    5  A    between atoms: C2'_10  and  O2'_11
REMARK    6  A    between atoms: C1'_12  and  N9_13
REMARK    7  A    between atoms: C6_17  and  N6_18
REMARK                            x       y       z     vdW  Elec       q    Type
REMARK                         _______ _______ _______ _____ _____    ______ ____
ROOT
ATOM      1  C4' NEC     0      -1.929   0.438  -7.267  0.00  0.00    +0.000 C 
ATOM      2  O4' NEC     0      -2.206   0.556  -8.678  0.00  0.00    +0.000 OA
ATOM      3  C3' NEC     0      -2.315   1.829  -6.702  0.00  0.00    +0.000 C 
ATOM      4  C2' NEC     0      -1.860   2.777  -7.840  0.00  0.00    +0.000 C 
ATOM      5  C1' NEC     0      -1.781   1.868  -9.081  0.00  0.00    +0.000 C 
ENDROOT
BRANCH   5   6
ATOM      6  N9  NEC     0      -2.665   2.378 -10.131  0.00  0.00    +0.000 N 
ATOM      7  C8  NEC     0      -3.927   1.943 -10.404  0.00  0.00    +0.000 A 
ATOM      8  N7  NEC     0      -4.424   2.615 -11.402  0.00  0.00    +0.000 NA
ATOM      9  C5  NEC     0      -3.513   3.522 -11.832  0.00  0.00    +0.000 A 
ATOM     10  C6  NEC     0      -3.490   4.495 -12.846  0.00  0.00    +0.000 C 
ATOM     11  N1  NEC     0      -2.396   5.233 -12.989  0.00  0.00    +0.000 NA
ATOM     12  C2  NEC     0      -1.349   5.063 -12.204  0.00  0.00    +0.000 C 
ATOM     13  N3  NEC     0      -1.325   4.165 -11.242  0.00  0.00    +0.000 N 
ATOM     14  C4  NEC     0      -2.377   3.384 -11.019  0.00  0.00    +0.000 A 
ATOM     15  H   NEC     0      -0.521   4.071 -10.683  0.00  0.00    +0.000 HD
BRANCH  10  16
ATOM     16  N6  NEC     0      -4.584   4.680 -13.674  0.00  0.00    +0.000 NA
ATOM     17 HN61 NEC     0      -4.571   4.333 -14.579  0.00  0.00    +0.000 HD
ATOM     18 HN62 NEC     0      -5.363   5.157 -13.347  0.00  0.00    +0.000 HD
ENDBRANCH  10  16
ENDBRANCH   5   6
BRANCH   1  19
ATOM     19  C5' NEC     0      -2.779  -0.641  -6.647  0.00  0.00    +0.000 C 
ATOM     20  O5' NEC     0      -3.950  -0.737  -6.949  0.00  0.00    +0.000 OA
ATOM     21  N5' NEC     0      -2.238  -1.499  -5.760  0.00  0.00    +0.000 N 
ATOM     22  HN5 NEC     0      -1.303  -1.422  -5.520  0.00  0.00    +0.000 HD
BRANCH  21  23
ATOM     23  C51 NEC     0      -3.065  -2.548  -5.160  0.00  0.00    +0.000 C 
ATOM     24  C52 NEC     0      -2.311  -3.186  -3.991  0.00  0.00    +0.000 C 
ENDBRANCH  21  23
ENDBRANCH   1  19
BRANCH   3  25
ATOM     25  O3' NEC     0      -1.608   2.108  -5.492  0.00  0.00    +0.000 OA
ATOM     26 HO3' NEC     0      -0.814   2.601  -5.739  0.00  0.00    +0.000 HD
ENDBRANCH   3  25
BRANCH   4  27
ATOM     27  O2' NEC     0      -0.577   3.333  -7.544  0.00  0.00    +0.000 OA
ATOM     28 HO2' NEC     0       0.069   2.839  -8.068  0.00  0.00    +0.000 HD
ENDBRANCH   4  27
TORSDOF 6
ENDMDL
MODEL 4
REMARK VINA RESULT:      -7.1      1.854      6.283
REMARK  Name = NEC.pdb
REMARK  7 active torsions:
REMARK  status: ('A' for Active; 'I' for Inactive)
REMARK    1  A    between atoms: C5'_1  and  C4'_6
REMARK    2  A    between atoms: N5'_3  and  C51_4
REMARK    3  A    between atoms: C51_4  and  C52_5
REMARK    4  A    between atoms: C3'_8  and  O3'_9
REMARK    5  A    between atoms: C2'_10  and  O2'_11
REMARK    6  A    between atoms: C1'_12  and  N9_13
REMARK    7  A    between atoms: C6_17  and  N6_18
REMARK                            x       y       z     vdW  Elec       q    Type
REMARK                         _______ _______ _______ _____ _____    ______ ____
ROOT
ATOM      1  C4' NEC     0      -3.118   2.655  -9.250  0.00  0.00    +0.000 C 
ATOM      2  O4' NEC     0      -3.178   1.773  -8.110  0.00  0.00    +0.000 OA
ATOM      3  C3' NEC     0      -1.664   2.491  -9.761  0.00  0.00    +0.000 C 
ATOM      4  C2' NEC     0      -0.872   2.344  -8.438  0.00  0.00    +0.000 C 
ATOM      5  C1' NEC     0      -1.931   1.907  -7.409  0.00  0.00    +0.000 C 
ENDROOT
BRANCH   5   6
ATOM      6  N9  NEC     0      -1.553   0.623  -6.815  0.00  0.00    +0.000 N 
ATOM      7  C8  NEC     0      -0.284   0.189  -6.576  0.00  0.00    +0.000 A 
ATOM      8  N7  NEC     0      -0.313  -0.997  -6.039  0.00  0.00    +0.000 NA
ATOM      9  C5  NEC     0      -1.600  -1.397  -5.901  0.00  0.00    +0.000 A 
ATOM     10  C6  NEC     0      -2.227  -2.550  -5.399  0.00  0.00    +0.000 C 
ATOM     11  N1  NEC     0      -3.554  -2.607  -5.416  0.00  0.00    +0.000 NA
ATOM     12  C2  NEC     0      -4.274  -1.609  -5.892  0.00  0.00    +0.000 C 
ATOM     13  N3  NEC     0      -3.730  -0.511  -6.373  0.00  0.00    +0.000 N 
ATOM     14  C4  NEC     0      -2.410  -0.361  -6.391  0.00  0.00    +0.000 A 
ATOM     15  H   NEC     0      -4.307   0.207  -6.722  0.00  0.00    +0.000 HD
BRANCH  10  16
ATOM     16  N6  NEC     0      -1.480  -3.601  -4.897  0.00  0.00    +0.000 NA
ATOM     17 HN61 NEC     0      -0.937  -3.475  -4.103  0.00  0.00    +0.000 HD
ATOM     18 HN62 NEC     0      -1.501  -4.465  -5.338  0.00  0.00    +0.000 HD
ENDBRANCH  10  16
ENDBRANCH   5   6
BRANCH   1  19
ATOM     19  C5' NEC     0      -4.103   2.225 -10.306  0.00  0.00    +0.000 C 
ATOM     20  O5' NEC     0      -4.850   1.293 -10.095  0.00  0.00    +0.000 OA
ATOM     21  N5' NEC     0      -4.156   2.878 -11.484  0.00  0.00    +0.000 N 
ATOM     22  HN5 NEC     0      -3.560   3.623 -11.652  0.00  0.00    +0.000 HD
BRANCH  21  23
ATOM     23  C51 NEC     0      -5.115   2.460 -12.510  0.00  0.00    +0.000 C 
ATOM     24  C52 NEC     0      -5.428   3.644 -13.427  0.00  0.00    +0.000 C 
ENDBRANCH  21  23
ENDBRANCH   1  19
BRANCH   3  25
ATOM     25  O3' NEC     0      -1.240   3.649 -10.484  0.00  0.00    +0.000 OA
ATOM     26 HO3' NEC     0      -1.294   4.396  -9.873  0.00  0.00    +0.000 HD
ENDBRANCH   3  25
BRANCH   4  27
ATOM     27  O2' NEC     0      -0.292   3.595  -8.060  0.00  0.00    +0.000 OA
ATOM     28 HO2' NEC     0      -1.018   4.232  -8.005  0.00  0.00    +0.000 HD
ENDBRANCH   4  27
TORSDOF 6
ENDMDL
MODEL 5
REMARK VINA RESULT:      -6.7      4.175      6.213
REMARK  Name = NEC.pdb
REMARK  7 active torsions:
REMARK  status: ('A' for Active; 'I' for Inactive)
REMARK    1  A    between atoms: C5'_1  and  C4'_6
REMARK    2  A    between atoms: N5'_3  and  C51_4
REMARK    3  A    between atoms: C51_4  and  C52_5
REMARK    4  A    between atoms: C3'_8  and  O3'_9
REMARK    5  A    between atoms: C2'_10  and  O2'_11
REMARK    6  A    between atoms: C1'_12  and  N9_13
REMARK    7  A    between atoms: C6_17  and  N6_18
REMARK                            x       y       z     vdW  Elec       q    Type
REMARK                         _______ _______ _______ _____ _____    ______ ____
ROOT
ATOM      1  C4' NEC     0      -2.065   3.734 -11.309  0.00  0.00    +0.000 C 
ATOM      2  O4' NEC     0      -2.768   3.909 -12.557  0.00  0.00    +0.000 OA
ATOM      3  C3' NEC     0      -1.925   5.178 -10.764  0.00  0.00    +0.000 C 
ATOM      4  C2' NEC     0      -1.684   5.991 -12.061  0.00  0.00    +0.000 C 
ATOM      5  C1' NEC     0      -2.228   5.085 -13.182  0.00  0.00    +0.000 C 
ENDROOT
BRANCH   5   6
ATOM      6  N9  NEC     0      -3.280   5.783 -13.923  0.00  0.00    +0.000 N 
ATOM      7  C8  NEC     0      -3.809   7.001 -13.617  0.00  0.00    +0.000 A 
ATOM      8  N7  NEC     0      -4.724   7.321 -14.487  0.00  0.00    +0.000 NA
ATOM      9  C5  NEC     0      -4.838   6.330 -15.405  0.00  0.00    +0.000 A 
ATOM     10  C6  NEC     0      -5.635   6.126 -16.544  0.00  0.00    +0.000 C 
ATOM     11  N1  NEC     0      -5.477   5.002 -17.234  0.00  0.00    +0.000 NA
ATOM     12  C2  NEC     0      -4.595   4.092 -16.865  0.00  0.00    +0.000 C 
ATOM     13  N3  NEC     0      -3.827   4.241 -15.806  0.00  0.00    +0.000 N 
ATOM     14  C4  NEC     0      -3.910   5.336 -15.057  0.00  0.00    +0.000 A 
ATOM     15  H   NEC     0      -3.185   3.534 -15.566  0.00  0.00    +0.000 HD
BRANCH  10  16
ATOM     16  N6  NEC     0      -6.562   7.074 -16.939  0.00  0.00    +0.000 NA
ATOM     17 HN61 NEC     0      -7.179   6.879 -17.661  0.00  0.00    +0.000 HD
ATOM     18 HN62 NEC     0      -6.596   7.934 -16.491  0.00  0.00    +0.000 HD
ENDBRANCH  10  16
ENDBRANCH   5   6
BRANCH   1  19
ATOM     19  C5' NEC     0      -2.871   2.885 -10.360  0.00  0.00    +0.000 C 
ATOM     20  O5' NEC     0      -2.527   2.777  -9.202  0.00  0.00    +0.000 OA
ATOM     21  N5' NEC     0      -3.975   2.248 -10.798  0.00  0.00    +0.000 N 
ATOM     22  HN5 NEC     0      -4.250   2.334 -11.723  0.00  0.00    +0.000 HD
BRANCH  21  23
ATOM     23  C51 NEC     0      -4.759   1.424  -9.875  0.00  0.00    +0.000 C 
ATOM     24  C52 NEC     0      -5.764   0.586 -10.667  0.00  0.00    +0.000 C 
ENDBRANCH  21  23
ENDBRANCH   1  19
BRANCH   3  25
ATOM     25  O3' NEC     0      -0.809   5.288  -9.878  0.00  0.00    +0.000 OA
ATOM     26 HO3' NEC     0      -0.282   6.040 -10.183  0.00  0.00    +0.000 HD
ENDBRANCH   3  25
BRANCH   4  27
ATOM     27  O2' NEC     0      -0.287   6.233 -12.247  0.00  0.00    +0.000 OA
ATOM     28 HO2' NEC     0       0.081   5.438 -12.658  0.00  0.00    +0.000 HD
ENDBRANCH   4  27
TORSDOF 6
ENDMDL
MODEL 6
REMARK VINA RESULT:      -6.7      5.464      9.107
REMARK  Name = NEC.pdb
REMARK  7 active torsions:
REMARK  status: ('A' for Active; 'I' for Inactive)
REMARK    1  A    between atoms: C5'_1  and  C4'_6
REMARK    2  A    between atoms: N5'_3  and  C51_4
REMARK    3  A    between atoms: C51_4  and  C52_5
REMARK    4  A    between atoms: C3'_8  and  O3'_9
REMARK    5  A    between atoms: C2'_10  and  O2'_11
REMARK    6  A    between atoms: C1'_12  and  N9_13
REMARK    7  A    between atoms: C6_17  and  N6_18
REMARK                            x       y       z     vdW  Elec       q    Type
REMARK                         _______ _______ _______ _____ _____    ______ ____
ROOT
ATOM      1  C4' NEC     0      -5.008   4.822 -15.539  0.00  0.00    +0.000 C 
ATOM      2  O4' NEC     0      -4.379   4.107 -14.454  0.00  0.00    +0.000 OA
ATOM      3  C3' NEC     0      -4.325   6.213 -15.502  0.00  0.00    +0.000 C 
ATOM      4  C2' NEC     0      -4.152   6.448 -13.981  0.00  0.00    +0.000 C 
ATOM      5  C1' NEC     0      -4.232   5.037 -13.368  0.00  0.00    +0.000 C 
ENDROOT
BRANCH   5   6
ATOM      6  N9  NEC     0      -3.006   4.744 -12.624  0.00  0.00    +0.000 N 
ATOM      7  C8  NEC     0      -1.805   5.370 -12.771  0.00  0.00    +0.000 A 
ATOM      8  N7  NEC     0      -0.933   4.858 -11.951  0.00  0.00    +0.000 NA
ATOM      9  C5  NEC     0      -1.518   3.874 -11.227  0.00  0.00    +0.000 A 
ATOM     10  C6  NEC     0      -1.084   2.996 -10.220  0.00  0.00    +0.000 C 
ATOM     11  N1  NEC     0      -1.955   2.130  -9.716  0.00  0.00    +0.000 NA
ATOM     12  C2  NEC     0      -3.202   2.086 -10.145  0.00  0.00    +0.000 C 
ATOM     13  N3  NEC     0      -3.653   2.889 -11.087  0.00  0.00    +0.000 N 
ATOM     14  C4  NEC     0      -2.856   3.793 -11.646  0.00  0.00    +0.000 A 
ATOM     15  H   NEC     0      -4.591   2.818 -11.379  0.00  0.00    +0.000 HD
BRANCH  10  16
ATOM     16  N6  NEC     0       0.222   3.034  -9.762  0.00  0.00    +0.000 NA
ATOM     17 HN61 NEC     0       0.544   2.349  -9.156  0.00  0.00    +0.000 HD
ATOM     18 HN62 NEC     0       0.815   3.746 -10.048  0.00  0.00    +0.000 HD
ENDBRANCH  10  16
ENDBRANCH   5   6
BRANCH   1  19
ATOM     19  C5' NEC     0      -4.740   4.135 -16.853  0.00  0.00    +0.000 C 
ATOM     20  O5' NEC     0      -3.786   3.394 -16.966  0.00  0.00    +0.000 OA
ATOM     21  N5' NEC     0      -5.562   4.341 -17.901  0.00  0.00    +0.000 N 
ATOM     22  HN5 NEC     0      -6.324   4.933 -17.810  0.00  0.00    +0.000 HD
BRANCH  21  23
ATOM     23  C51 NEC     0      -5.302   3.671 -19.177  0.00  0.00    +0.000 C 
ATOM     24  C52 NEC     0      -6.625   3.201 -19.785  0.00  0.00    +0.000 C 
ENDBRANCH  21  23
ENDBRANCH   1  19
BRANCH   3  25
ATOM     25  O3' NEC     0      -5.165   7.214 -16.081  0.00  0.00    +0.000 OA
ATOM     26 HO3' NEC     0      -5.435   7.802 -15.362  0.00  0.00    +0.000 HD
ENDBRANCH   3  25
BRANCH   4  27
ATOM     27  O2' NEC     0      -5.207   7.272 -13.479  0.00  0.00    +0.000 OA
ATOM     28 HO2' NEC     0      -5.800   7.449 -14.222  0.00  0.00    +0.000 HD
ENDBRANCH   4  27
TORSDOF 6
ENDMDL
MODEL 7
REMARK VINA RESULT:      -6.7      5.260      8.934
REMARK  Name = NEC.pdb
REMARK  7 active torsions:
REMARK  status: ('A' for Active; 'I' for Inactive)
REMARK    1  A    between atoms: C5'_1  and  C4'_6
REMARK    2  A    between atoms: N5'_3  and  C51_4
REMARK    3  A    between atoms: C51_4  and  C52_5
REMARK    4  A    between atoms: C3'_8  and  O3'_9
REMARK    5  A    between atoms: C2'_10  and  O2'_11
REMARK    6  A    between atoms: C1'_12  and  N9_13
REMARK    7  A    between atoms: C6_17  and  N6_18
REMARK                            x       y       z     vdW  Elec       q    Type
REMARK                         _______ _______ _______ _____ _____    ______ ____
ROOT
ATOM      1  C4' NEC     0      -5.475   5.508 -15.268  0.00  0.00    +0.000 C 
ATOM      2  O4' NEC     0      -5.163   5.407 -13.862  0.00  0.00    +0.000 OA
ATOM      3  C3' NEC     0      -4.697   4.326 -15.900  0.00  0.00    +0.000 C 
ATOM      4  C2' NEC     0      -3.397   4.307 -15.057  0.00  0.00    +0.000 C 
ATOM      5  C1' NEC     0      -3.773   5.057 -13.765  0.00  0.00    +0.000 C 
ENDROOT
BRANCH   5   6
ATOM      6  N9  NEC     0      -3.557   4.191 -12.604  0.00  0.00    +0.000 N 
ATOM      7  C8  NEC     0      -2.493   4.234 -11.754  0.00  0.00    +0.000 A 
ATOM      8  N7  NEC     0      -2.622   3.323 -10.833  0.00  0.00    +0.000 NA
ATOM      9  C5  NEC     0      -3.776   2.640 -11.033  0.00  0.00    +0.000 A 
ATOM     10  C6  NEC     0      -4.422   1.579 -10.377  0.00  0.00    +0.000 C 
ATOM     11  N1  NEC     0      -5.580   1.147 -10.862  0.00  0.00    +0.000 NA
ATOM     12  C2  NEC     0      -6.118   1.694 -11.935  0.00  0.00    +0.000 C 
ATOM     13  N3  NEC     0      -5.549   2.690 -12.582  0.00  0.00    +0.000 N 
ATOM     14  C4  NEC     0      -4.391   3.193 -12.167  0.00  0.00    +0.000 A 
ATOM     15  H   NEC     0      -5.985   3.065 -13.381  0.00  0.00    +0.000 HD
BRANCH  10  16
ATOM     16  N6  NEC     0      -3.866   0.999  -9.250  0.00  0.00    +0.000 NA
ATOM     17 HN61 NEC     0      -4.110   1.321  -8.368  0.00  0.00    +0.000 HD
ATOM     18 HN62 NEC     0      -3.233   0.270  -9.342  0.00  0.00    +0.000 HD
ENDBRANCH  10  16
ENDBRANCH   5   6
BRANCH   1  19
ATOM     19  C5' NEC     0      -6.956   5.351 -15.496  0.00  0.00    +0.000 C 
ATOM     20  O5' NEC     0      -7.588   4.550 -14.840  0.00  0.00    +0.000 OA
ATOM     21  N5' NEC     0      -7.578   6.101 -16.427  0.00  0.00    +0.000 N 
ATOM     22  HN5 NEC     0      -7.072   6.742 -16.950  0.00  0.00    +0.000 HD
BRANCH  21  23
ATOM     23  C51 NEC     0      -9.018   5.949 -16.646  0.00  0.00    +0.000 C 
ATOM     24  C52 NEC     0      -9.673   7.330 -16.705  0.00  0.00    +0.000 C 
ENDBRANCH  21  23
ENDBRANCH   1  19
BRANCH   3  25
ATOM     25  O3' NEC     0      -4.409   4.577 -17.277  0.00  0.00    +0.000 OA
ATOM     26 HO3' NEC     0      -3.926   5.415 -17.314  0.00  0.00    +0.000 HD
ENDBRANCH   3  25
BRANCH   4  27
ATOM     27  O2' NEC     0      -2.346   4.991 -15.744  0.00  0.00    +0.000 OA
ATOM     28 HO2' NEC     0      -2.005   5.661 -15.135  0.00  0.00    +0.000 HD
ENDBRANCH   4  27
TORSDOF 6
ENDMDL
MODEL 8
REMARK VINA RESULT:      -6.7      5.462      9.356
REMARK  Name = NEC.pdb
REMARK  7 active torsions:
REMARK  status: ('A' for Active; 'I' for Inactive)
REMARK    1  A    between atoms: C5'_1  and  C4'_6
REMARK    2  A    between atoms: N5'_3  and  C51_4
REMARK    3  A    between atoms: C51_4  and  C52_5
REMARK    4  A    between atoms: C3'_8  and  O3'_9
REMARK    5  A    between atoms: C2'_10  and  O2'_11
REMARK    6  A    between atoms: C1'_12  and  N9_13
REMARK    7  A    between atoms: C6_17  and  N6_18
REMARK                            x       y       z     vdW  Elec       q    Type
REMARK                         _______ _______ _______ _____ _____    ______ ____
ROOT
ATOM      1  C4' NEC     0      -5.793   5.533 -15.437  0.00  0.00    +0.000 C 
ATOM      2  O4' NEC     0      -5.637   5.289 -14.023  0.00  0.00    +0.000 OA
ATOM      3  C3' NEC     0      -4.977   4.392 -16.096  0.00  0.00    +0.000 C 
ATOM      4  C2' NEC     0      -3.776   4.253 -15.127  0.00  0.00    +0.000 C 
ATOM      5  C1' NEC     0      -4.273   4.888 -13.814  0.00  0.00    +0.000 C 
ENDROOT
BRANCH   5   6
ATOM      6  N9  NEC     0      -4.201   3.911 -12.727  0.00  0.00    +0.000 N 
ATOM      7  C8  NEC     0      -5.174   3.024 -12.374  0.00  0.00    +0.000 A 
ATOM      8  N7  NEC     0      -4.776   2.305 -11.364  0.00  0.00    +0.000 NA
ATOM      9  C5  NEC     0      -3.526   2.684 -11.006  0.00  0.00    +0.000 A 
ATOM     10  C6  NEC     0      -2.615   2.277 -10.016  0.00  0.00    +0.000 C 
ATOM     11  N1  NEC     0      -1.437   2.886  -9.951  0.00  0.00    +0.000 NA
ATOM     12  C2  NEC     0      -1.121   3.854 -10.790  0.00  0.00    +0.000 C 
ATOM     13  N3  NEC     0      -1.942   4.269 -11.733  0.00  0.00    +0.000 N 
ATOM     14  C4  NEC     0      -3.140   3.714 -11.879  0.00  0.00    +0.000 A 
ATOM     15  H   NEC     0      -1.665   4.997 -12.335  0.00  0.00    +0.000 HD
BRANCH  10  16
ATOM     16  N6  NEC     0      -2.938   1.263  -9.132  0.00  0.00    +0.000 NA
ATOM     17 HN61 NEC     0      -2.236   0.794  -8.654  0.00  0.00    +0.000 HD
ATOM     18 HN62 NEC     0      -3.867   1.022  -8.988  0.00  0.00    +0.000 HD
ENDBRANCH  10  16
ENDBRANCH   5   6
BRANCH   1  19
ATOM     19  C5' NEC     0      -7.244   5.444 -15.833  0.00  0.00    +0.000 C 
ATOM     20  O5' NEC     0      -8.008   4.756 -15.188  0.00  0.00    +0.000 OA
ATOM     21  N5' NEC     0      -7.694   6.129 -16.903  0.00  0.00    +0.000 N 
ATOM     22  HN5 NEC     0      -7.084   6.679 -17.417  0.00  0.00    +0.000 HD
BRANCH  21  23
ATOM     23  C51 NEC     0      -9.105   6.044 -17.287  0.00  0.00    +0.000 C 
ATOM     24  C52 NEC     0      -9.856   7.259 -16.741  0.00  0.00    +0.000 C 
ENDBRANCH  21  23
ENDBRANCH   1  19
BRANCH   3  25
ATOM     25  O3' NEC     0      -4.537   4.763 -17.404  0.00  0.00    +0.000 OA
ATOM     26 HO3' NEC     0      -3.579   4.632 -17.424  0.00  0.00    +0.000 HD
ENDBRANCH   3  25
BRANCH   4  27
ATOM     27  O2' NEC     0      -2.643   4.965 -15.630  0.00  0.00    +0.000 OA
ATOM     28 HO2' NEC     0      -1.893   4.728 -15.067  0.00  0.00    +0.000 HD
ENDBRANCH   4  27
TORSDOF 6
ENDMDL
MODEL 9
REMARK VINA RESULT:      -6.5      3.790      5.732
REMARK  Name = NEC.pdb
REMARK  7 active torsions:
REMARK  status: ('A' for Active; 'I' for Inactive)
REMARK    1  A    between atoms: C5'_1  and  C4'_6
REMARK    2  A    between atoms: N5'_3  and  C51_4
REMARK    3  A    between atoms: C51_4  and  C52_5
REMARK    4  A    between atoms: C3'_8  and  O3'_9
REMARK    5  A    between atoms: C2'_10  and  O2'_11
REMARK    6  A    between atoms: C1'_12  and  N9_13
REMARK    7  A    between atoms: C6_17  and  N6_18
REMARK                            x       y       z     vdW  Elec       q    Type
REMARK                         _______ _______ _______ _____ _____    ______ ____
ROOT
ATOM      1  C4' NEC     0      -1.582   3.639 -10.694  0.00  0.00    +0.000 C 
ATOM      2  O4' NEC     0      -2.432   3.342 -11.822  0.00  0.00    +0.000 OA
ATOM      3  C3' NEC     0      -1.839   5.145 -10.431  0.00  0.00    +0.000 C 
ATOM      4  C2' NEC     0      -2.000   5.701 -11.868  0.00  0.00    +0.000 C 
ATOM      5  C1' NEC     0      -2.351   4.463 -12.715  0.00  0.00    +0.000 C 
ENDROOT
BRANCH   5   6
ATOM      6  N9  NEC     0      -3.640   4.663 -13.382  0.00  0.00    +0.000 N 
ATOM      7  C8  NEC     0      -4.783   3.958 -13.154  0.00  0.00    +0.000 A 
ATOM      8  N7  NEC     0      -5.738   4.399 -13.921  0.00  0.00    +0.000 NA
ATOM      9  C5  NEC     0      -5.269   5.412 -14.688  0.00  0.00    +0.000 A 
ATOM     10  C6  NEC     0      -5.826   6.247 -15.671  0.00  0.00    +0.000 C 
ATOM     11  N1  NEC     0      -5.051   7.166 -16.235  0.00  0.00    +0.000 NA
ATOM     12  C2  NEC     0      -3.785   7.299 -15.886  0.00  0.00    +0.000 C 
ATOM     13  N3  NEC     0      -3.220   6.540 -14.971  0.00  0.00    +0.000 N 
ATOM     14  C4  NEC     0      -3.920   5.597 -14.347  0.00  0.00    +0.000 A 
ATOM     15  H   NEC     0      -2.271   6.672 -14.745  0.00  0.00    +0.000 HD
BRANCH  10  16
ATOM     16  N6  NEC     0      -7.153   6.115 -16.043  0.00  0.00    +0.000 NA
ATOM     17 HN61 NEC     0      -7.756   5.577 -15.507  0.00  0.00    +0.000 HD
ATOM     18 HN62 NEC     0      -7.480   6.563 -16.839  0.00  0.00    +0.000 HD
ENDBRANCH  10  16
ENDBRANCH   5   6
BRANCH   1  19
ATOM     19  C5' NEC     0      -1.980   2.816  -9.496  0.00  0.00    +0.000 C 
ATOM     20  O5' NEC     0      -1.653   3.169  -8.383  0.00  0.00    +0.000 OA
ATOM     21  N5' NEC     0      -2.701   1.690  -9.663  0.00  0.00    +0.000 N 
ATOM     22  HN5 NEC     0      -2.962   1.409 -10.553  0.00  0.00    +0.000 HD
BRANCH  21  23
ATOM     23  C51 NEC     0      -3.090   0.891  -8.498  0.00  0.00    +0.000 C 
ATOM     24  C52 NEC     0      -4.290   0.014  -8.859  0.00  0.00    +0.000 C 
ENDBRANCH  21  23
ENDBRANCH   1  19
BRANCH   3  25
ATOM     25  O3' NEC     0      -0.725   5.750  -9.771  0.00  0.00    +0.000 OA
ATOM     26 HO3' NEC     0      -1.087   6.322  -9.079  0.00  0.00    +0.000 HD
ENDBRANCH   3  25
BRANCH   4  27
ATOM     27  O2' NEC     0      -0.775   6.284 -12.318  0.00  0.00    +0.000 OA
ATOM     28 HO2' NEC     0      -0.524   6.948 -11.661  0.00  0.00    +0.000 HD
ENDBRANCH   4  27
TORSDOF 6
ENDMDL
MODEL 10
REMARK VINA RESULT:      -6.5      2.779      4.849
REMARK  Name = NEC.pdb
REMARK  7 active torsions:
REMARK  status: ('A' for Active; 'I' for Inactive)
REMARK    1  A    between atoms: C5'_1  and  C4'_6
REMARK    2  A    between atoms: N5'_3  and  C51_4
REMARK    3  A    between atoms: C51_4  and  C52_5
REMARK    4  A    between atoms: C3'_8  and  O3'_9
REMARK    5  A    between atoms: C2'_10  and  O2'_11
REMARK    6  A    between atoms: C1'_12  and  N9_13
REMARK    7  A    between atoms: C6_17  and  N6_18
REMARK                            x       y       z     vdW  Elec       q    Type
REMARK                         _______ _______ _______ _____ _____    ______ ____
ROOT
ATOM      1  C4' NEC     0      -4.460   1.370  -9.434  0.00  0.00    +0.000 C 
ATOM      2  O4' NEC     0      -4.243   2.599 -10.159  0.00  0.00    +0.000 OA
ATOM      3  C3' NEC     0      -4.972   0.392 -10.522  0.00  0.00    +0.000 C 
ATOM      4  C2' NEC     0      -5.843   1.320 -11.406  0.00  0.00    +0.000 C 
ATOM      5  C1' NEC     0      -5.330   2.737 -11.088  0.00  0.00    +0.000 C 
ENDROOT
BRANCH   5   6
ATOM      6  N9  NEC     0      -4.860   3.386 -12.314  0.00  0.00    +0.000 N 
ATOM      7  C8  NEC     0      -5.524   3.441 -13.502  0.00  0.00    +0.000 A 
ATOM      8  N7  NEC     0      -4.816   4.095 -14.378  0.00  0.00    +0.000 NA
ATOM      9  C5  NEC     0      -3.655   4.500 -13.807  0.00  0.00    +0.000 A 
ATOM     10  C6  NEC     0      -2.535   5.222 -14.251  0.00  0.00    +0.000 C 
ATOM     11  N1  NEC     0      -1.546   5.446 -13.395  0.00  0.00    +0.000 NA
ATOM     12  C2  NEC     0      -1.604   5.002 -12.153  0.00  0.00    +0.000 C 
ATOM     13  N3  NEC     0      -2.632   4.321 -11.693  0.00  0.00    +0.000 N 
ATOM     14  C4  NEC     0      -3.673   4.055 -12.476  0.00  0.00    +0.000 A 
ATOM     15  H   NEC     0      -2.631   4.007 -10.760  0.00  0.00    +0.000 HD
BRANCH  10  16
ATOM     16  N6  NEC     0      -2.466   5.692 -15.551  0.00  0.00    +0.000 NA
ATOM     17 HN61 NEC     0      -1.631   6.044 -15.896  0.00  0.00    +0.000 HD
ATOM     18 HN62 NEC     0      -3.252   5.666 -16.118  0.00  0.00    +0.000 HD
ENDBRANCH  10  16
ENDBRANCH   5   6
BRANCH   1  19
ATOM     19  C5' NEC     0      -3.170   0.871  -8.837  0.00  0.00    +0.000 C 
ATOM     20  O5' NEC     0      -2.124   1.425  -9.105  0.00  0.00    +0.000 OA
ATOM     21  N5' NEC     0      -3.178  -0.189  -8.005  0.00  0.00    +0.000 N 
ATOM     22  HN5 NEC     0      -4.013  -0.631  -7.791  0.00  0.00    +0.000 HD
BRANCH  21  23
ATOM     23  C51 NEC     0      -1.924  -0.673  -7.424  0.00  0.00    +0.000 C 
ATOM     24  C52 NEC     0      -1.846  -0.250  -5.956  0.00  0.00    +0.000 C 
ENDBRANCH  21  23
ENDBRANCH   1  19
BRANCH   3  25
ATOM     25  O3' NEC     0      -5.761  -0.651  -9.945  0.00  0.00    +0.000 OA
ATOM     26 HO3' NEC     0      -5.156  -1.213  -9.440  0.00  0.00    +0.000 HD
ENDBRANCH   3  25
BRANCH   4  27
ATOM     27  O2' NEC     0      -7.223   1.196 -11.053  0.00  0.00    +0.000 OA
ATOM     28 HO2' NEC     0      -7.297   0.414 -10.489  0.00  0.00    +0.000 HD
ENDBRANCH   4  27
TORSDOF 6
ENDMDL
MODEL 11
REMARK VINA RESULT:      -6.3      4.963      8.654
REMARK  Name = NEC.pdb
REMARK  7 active torsions:
REMARK  status: ('A' for Active; 'I' for Inactive)
REMARK    1  A    between atoms: C5'_1  and  C4'_6
REMARK    2  A    between atoms: N5'_3  and  C51_4
REMARK    3  A    between atoms: C51_4  and  C52_5
REMARK    4  A    between atoms: C3'_8  and  O3'_9
REMARK    5  A    between atoms: C2'_10  and  O2'_11
REMARK    6  A    between atoms: C1'_12  and  N9_13
REMARK    7  A    between atoms: C6_17  and  N6_18
REMARK                            x       y       z     vdW  Elec       q    Type
REMARK                         _______ _______ _______ _____ _____    ______ ____
ROOT
ATOM      1  C4' NEC     0      -4.608   5.446 -14.895  0.00  0.00    +0.000 C 
ATOM      2  O4' NEC     0      -5.327   4.868 -13.786  0.00  0.00    +0.000 OA
ATOM      3  C3' NEC     0      -3.404   4.489 -15.087  0.00  0.00    +0.000 C 
ATOM      4  C2' NEC     0      -3.058   4.109 -13.626  0.00  0.00    +0.000 C 
ATOM      5  C1' NEC     0      -4.347   4.415 -12.840  0.00  0.00    +0.000 C 
ENDROOT
BRANCH   5   6
ATOM      6  N9  NEC     0      -4.823   3.204 -12.169  0.00  0.00    +0.000 N 
ATOM      7  C8  NEC     0      -5.916   2.468 -12.515  0.00  0.00    +0.000 A 
ATOM      8  N7  NEC     0      -6.047   1.457 -11.704  0.00  0.00    +0.000 NA
ATOM      9  C5  NEC     0      -5.048   1.481 -10.790  0.00  0.00    +0.000 A 
ATOM     10  C6  NEC     0      -4.685   0.669  -9.702  0.00  0.00    +0.000 C 
ATOM     11  N1  NEC     0      -3.609   0.998  -8.998  0.00  0.00    +0.000 NA
ATOM     12  C2  NEC     0      -2.890   2.061  -9.305  0.00  0.00    +0.000 C 
ATOM     13  N3  NEC     0      -3.192   2.851 -10.315  0.00  0.00    +0.000 N 
ATOM     14  C4  NEC     0      -4.249   2.597 -11.081  0.00  0.00    +0.000 A 
ATOM     15  H   NEC     0      -2.629   3.636 -10.506  0.00  0.00    +0.000 HD
BRANCH  10  16
ATOM     16  N6  NEC     0      -5.432  -0.449  -9.372  0.00  0.00    +0.000 NA
ATOM     17 HN61 NEC     0      -6.084  -0.800  -9.999  0.00  0.00    +0.000 HD
ATOM     18 HN62 NEC     0      -5.303  -0.882  -8.514  0.00  0.00    +0.000 HD
ENDBRANCH  10  16
ENDBRANCH   5   6
BRANCH   1  19
ATOM     19  C5' NEC     0      -5.468   5.471 -16.132  0.00  0.00    +0.000 C 
ATOM     20  O5' NEC     0      -6.677   5.469 -16.029  0.00  0.00    +0.000 OA
ATOM     21  N5' NEC     0      -4.895   5.495 -17.352  0.00  0.00    +0.000 N 
ATOM     22  HN5 NEC     0      -3.929   5.497 -17.433  0.00  0.00    +0.000 HD
BRANCH  21  23
ATOM     23  C51 NEC     0      -5.732   5.520 -18.553  0.00  0.00    +0.000 C 
ATOM     24  C52 NEC     0      -5.710   4.143 -19.219  0.00  0.00    +0.000 C 
ENDBRANCH  21  23
ENDBRANCH   1  19
BRANCH   3  25
ATOM     25  O3' NEC     0      -2.308   5.159 -15.714  0.00  0.00    +0.000 OA
ATOM     26 HO3' NEC     0      -1.543   5.049 -15.131  0.00  0.00    +0.000 HD
ENDBRANCH   3  25
BRANCH   4  27
ATOM     27  O2' NEC     0      -1.976   4.909 -13.144  0.00  0.00    +0.000 OA
ATOM     28 HO2' NEC     0      -1.823   5.599 -13.804  0.00  0.00    +0.000 HD
ENDBRANCH   4  27
TORSDOF 6
ENDMDL
MODEL 12
REMARK VINA RESULT:      -6.2      3.537      5.277
REMARK  Name = NEC.pdb
REMARK  7 active torsions:
REMARK  status: ('A' for Active; 'I' for Inactive)
REMARK    1  A    between atoms: C5'_1  and  C4'_6
REMARK    2  A    between atoms: N5'_3  and  C51_4
REMARK    3  A    between atoms: C51_4  and  C52_5
REMARK    4  A    between atoms: C3'_8  and  O3'_9
REMARK    5  A    between atoms: C2'_10  and  O2'_11
REMARK    6  A    between atoms: C1'_12  and  N9_13
REMARK    7  A    between atoms: C6_17  and  N6_18
REMARK                            x       y       z     vdW  Elec       q    Type
REMARK                         _______ _______ _______ _____ _____    ______ ____
ROOT
ATOM      1  C4' NEC     0      -0.720   4.353 -10.978  0.00  0.00    +0.000 C 
ATOM      2  O4' NEC     0      -1.302   4.201 -12.290  0.00  0.00    +0.000 OA
ATOM      3  C3' NEC     0      -1.549   5.497 -10.341  0.00  0.00    +0.000 C 
ATOM      4  C2' NEC     0      -1.795   6.431 -11.554  0.00  0.00    +0.000 C 
ATOM      5  C1' NEC     0      -1.583   5.522 -12.780  0.00  0.00    +0.000 C 
ENDROOT
BRANCH   5   6
ATOM      6  N9  NEC     0      -2.794   5.502 -13.602  0.00  0.00    +0.000 N 
ATOM      7  C8  NEC     0      -3.050   6.296 -14.680  0.00  0.00    +0.000 A 
ATOM      8  N7  NEC     0      -4.220   6.011 -15.175  0.00  0.00    +0.000 NA
ATOM      9  C5  NEC     0      -4.788   5.018 -14.447  0.00  0.00    +0.000 A 
ATOM     10  C6  NEC     0      -6.006   4.321 -14.509  0.00  0.00    +0.000 C 
ATOM     11  N1  NEC     0      -6.241   3.377 -13.606  0.00  0.00    +0.000 NA
ATOM     12  C2  NEC     0      -5.357   3.094 -12.667  0.00  0.00    +0.000 C 
ATOM     13  N3  NEC     0      -4.203   3.721 -12.571  0.00  0.00    +0.000 N 
ATOM     14  C4  NEC     0      -3.878   4.677 -13.435  0.00  0.00    +0.000 A 
ATOM     15  H   NEC     0      -3.576   3.479 -11.852  0.00  0.00    +0.000 HD
BRANCH  10  16
ATOM     16  N6  NEC     0      -6.939   4.610 -15.490  0.00  0.00    +0.000 NA
ATOM     17 HN61 NEC     0      -6.821   4.266 -16.389  0.00  0.00    +0.000 HD
ATOM     18 HN62 NEC     0      -7.712   5.157 -15.277  0.00  0.00    +0.000 HD
ENDBRANCH  10  16
ENDBRANCH   5   6
BRANCH   1  19
ATOM     19  C5' NEC     0      -0.870   3.083 -10.181  0.00  0.00    +0.000 C 
ATOM     20  O5' NEC     0       0.115   2.464  -9.837  0.00  0.00    +0.000 OA
ATOM     21  N5' NEC     0      -2.097   2.637  -9.849  0.00  0.00    +0.000 N 
ATOM     22  HN5 NEC     0      -2.883   3.132 -10.123  0.00  0.00    +0.000 HD
BRANCH  21  23
ATOM     23  C51 NEC     0      -2.242   1.403  -9.072  0.00  0.00    +0.000 C 
ATOM     24  C52 NEC     0      -3.682   0.898  -9.181  0.00  0.00    +0.000 C 
ENDBRANCH  21  23
ENDBRANCH   1  19
BRANCH   3  25
ATOM     25  O3' NEC     0      -0.803   6.168  -9.324  0.00  0.00    +0.000 OA
ATOM     26 HO3' NEC     0      -1.448   6.561  -8.718  0.00  0.00    +0.000 HD
ENDBRANCH   3  25
BRANCH   4  27
ATOM     27  O2' NEC     0      -0.851   7.504 -11.557  0.00  0.00    +0.000 OA
ATOM     28 HO2' NEC     0      -1.006   8.009 -12.369  0.00  0.00    +0.000 HD
ENDBRANCH   4  27
TORSDOF 6
ENDMDL
MODEL 13
REMARK VINA RESULT:      -6.2      7.539     10.199
REMARK  Name = NEC.pdb
REMARK  7 active torsions:
REMARK  status: ('A' for Active; 'I' for Inactive)
REMARK    1  A    between atoms: C5'_1  and  C4'_6
REMARK    2  A    between atoms: N5'_3  and  C51_4
REMARK    3  A    between atoms: C51_4  and  C52_5
REMARK    4  A    between atoms: C3'_8  and  O3'_9
REMARK    5  A    between atoms: C2'_10  and  O2'_11
REMARK    6  A    between atoms: C1'_12  and  N9_13
REMARK    7  A    between atoms: C6_17  and  N6_18
REMARK                            x       y       z     vdW  Elec       q    Type
REMARK                         _______ _______ _______ _____ _____    ______ ____
ROOT
ATOM      1  C4' NEC     0      -3.901   5.845 -15.743  0.00  0.00    +0.000 C 
ATOM      2  O4' NEC     0      -4.628   6.049 -16.973  0.00  0.00    +0.000 OA
ATOM      3  C3' NEC     0      -4.521   6.885 -14.776  0.00  0.00    +0.000 C 
ATOM      4  C2' NEC     0      -4.778   8.088 -15.718  0.00  0.00    +0.000 C 
ATOM      5  C1' NEC     0      -4.801   7.467 -17.128  0.00  0.00    +0.000 C 
ENDROOT
BRANCH   5   6
ATOM      6  N9  NEC     0      -6.083   7.745 -17.777  0.00  0.00    +0.000 N 
ATOM      7  C8  NEC     0      -6.323   8.712 -18.706  0.00  0.00    +0.000 A 
ATOM      8  N7  NEC     0      -7.573   8.679 -19.070  0.00  0.00    +0.000 NA
ATOM      9  C5  NEC     0      -8.212   7.691 -18.398  0.00  0.00    +0.000 A 
ATOM     10  C6  NEC     0      -9.529   7.201 -18.380  0.00  0.00    +0.000 C 
ATOM     11  N1  NEC     0      -9.814   6.185 -17.574  0.00  0.00    +0.000 NA
ATOM     12  C2  NEC     0      -8.890   5.643 -16.804  0.00  0.00    +0.000 C 
ATOM     13  N3  NEC     0      -7.644   6.070 -16.788  0.00  0.00    +0.000 N 
ATOM     14  C4  NEC     0      -7.263   7.078 -17.566  0.00  0.00    +0.000 A 
ATOM     15  H   NEC     0      -6.988   5.637 -16.194  0.00  0.00    +0.000 HD
BRANCH  10  16
ATOM     16  N6  NEC     0     -10.505   7.763 -19.184  0.00  0.00    +0.000 NA
ATOM     17 HN61 NEC     0     -10.758   8.691 -19.064  0.00  0.00    +0.000 HD
ATOM     18 HN62 NEC     0     -10.936   7.227 -19.869  0.00  0.00    +0.000 HD
ENDBRANCH  10  16
ENDBRANCH   5   6
BRANCH   1  19
ATOM     19  C5' NEC     0      -4.117   4.446 -15.225  0.00  0.00    +0.000 C 
ATOM     20  O5' NEC     0      -3.851   3.493 -15.927  0.00  0.00    +0.000 OA
ATOM     21  N5' NEC     0      -4.602   4.254 -13.983  0.00  0.00    +0.000 N 
ATOM     22  HN5 NEC     0      -4.814   5.016 -13.423  0.00  0.00    +0.000 HD
BRANCH  21  23
ATOM     23  C51 NEC     0      -4.810   2.895 -13.480  0.00  0.00    +0.000 C 
ATOM     24  C52 NEC     0      -5.044   2.940 -11.969  0.00  0.00    +0.000 C 
ENDBRANCH  21  23
ENDBRANCH   1  19
BRANCH   3  25
ATOM     25  O3' NEC     0      -3.602   7.236 -13.739  0.00  0.00    +0.000 OA
ATOM     26 HO3' NEC     0      -2.922   6.548 -13.724  0.00  0.00    +0.000 HD
ENDBRANCH   3  25
BRANCH   4  27
ATOM     27  O2' NEC     0      -3.720   9.044 -15.609  0.00  0.00    +0.000 OA
ATOM     28 HO2' NEC     0      -3.990   9.818 -16.124  0.00  0.00    +0.000 HD
ENDBRANCH   4  27
TORSDOF 6
ENDMDL
MODEL 14
REMARK VINA RESULT:      -6.0      2.508      3.635
REMARK  Name = NEC.pdb
REMARK  7 active torsions:
REMARK  status: ('A' for Active; 'I' for Inactive)
REMARK    1  A    between atoms: C5'_1  and  C4'_6
REMARK    2  A    between atoms: N5'_3  and  C51_4
REMARK    3  A    between atoms: C51_4  and  C52_5
REMARK    4  A    between atoms: C3'_8  and  O3'_9
REMARK    5  A    between atoms: C2'_10  and  O2'_11
REMARK    6  A    between atoms: C1'_12  and  N9_13
REMARK    7  A    between atoms: C6_17  and  N6_18
REMARK                            x       y       z     vdW  Elec       q    Type
REMARK                         _______ _______ _______ _____ _____    ______ ____
ROOT
ATOM      1  C4' NEC     0      -1.886   1.286  -8.533  0.00  0.00    +0.000 C 
ATOM      2  O4' NEC     0      -1.641   1.761  -9.874  0.00  0.00    +0.000 OA
ATOM      3  C3' NEC     0      -2.122   2.587  -7.724  0.00  0.00    +0.000 C 
ATOM      4  C2' NEC     0      -1.114   3.563  -8.382  0.00  0.00    +0.000 C 
ATOM      5  C1' NEC     0      -0.827   2.939  -9.761  0.00  0.00    +0.000 C 
ENDROOT
BRANCH   5   6
ATOM      6  N9  NEC     0      -1.172   3.887 -10.821  0.00  0.00    +0.000 N 
ATOM      7  C8  NEC     0      -0.408   4.931 -11.248  0.00  0.00    +0.000 A 
ATOM      8  N7  NEC     0      -1.019   5.568 -12.206  0.00  0.00    +0.000 NA
ATOM      9  C5  NEC     0      -2.211   4.973 -12.453  0.00  0.00    +0.000 A 
ATOM     10  C6  NEC     0      -3.268   5.211 -13.348  0.00  0.00    +0.000 C 
ATOM     11  N1  NEC     0      -4.319   4.401 -13.317  0.00  0.00    +0.000 NA
ATOM     12  C2  NEC     0      -4.380   3.393 -12.466  0.00  0.00    +0.000 C 
ATOM     13  N3  NEC     0      -3.415   3.132 -11.609  0.00  0.00    +0.000 N 
ATOM     14  C4  NEC     0      -2.320   3.885 -11.572  0.00  0.00    +0.000 A 
ATOM     15  H   NEC     0      -3.505   2.372 -10.991  0.00  0.00    +0.000 HD
BRANCH  10  16
ATOM     16  N6  NEC     0      -3.213   6.265 -14.244  0.00  0.00    +0.000 NA
ATOM     17 HN61 NEC     0      -2.355   6.593 -14.555  0.00  0.00    +0.000 HD
ATOM     18 HN62 NEC     0      -4.033   6.673 -14.563  0.00  0.00    +0.000 HD
ENDBRANCH  10  16
ENDBRANCH   5   6
BRANCH   1  19
ATOM     19  C5' NEC     0      -3.111   0.410  -8.496  0.00  0.00    +0.000 C 
ATOM     20  O5' NEC     0      -3.159  -0.532  -7.733  0.00  0.00    +0.000 OA
ATOM     21  N5' NEC     0      -4.153   0.673  -9.308  0.00  0.00    +0.000 N 
ATOM     22  HN5 NEC     0      -4.115   1.426  -9.917  0.00  0.00    +0.000 HD
BRANCH  21  23
ATOM     23  C51 NEC     0      -5.344  -0.179  -9.270  0.00  0.00    +0.000 C 
ATOM     24  C52 NEC     0      -6.105  -0.051 -10.591  0.00  0.00    +0.000 C 
ENDBRANCH  21  23
ENDBRANCH   1  19
BRANCH   3  25
ATOM     25  O3' NEC     0      -1.818   2.395  -6.341  0.00  0.00    +0.000 OA
ATOM     26 HO3' NEC     0      -2.145   1.517  -6.102  0.00  0.00    +0.000 HD
ENDBRANCH   3  25
BRANCH   4  27
ATOM     27  O2' NEC     0       0.085   3.640  -7.608  0.00  0.00    +0.000 OA
ATOM     28 HO2' NEC     0       0.092   4.513  -7.191  0.00  0.00    +0.000 HD
ENDBRANCH   4  27
TORSDOF 6
ENDMDL
MODEL 15
REMARK VINA RESULT:      -6.0      2.624      3.780
REMARK  Name = NEC.pdb
REMARK  7 active torsions:
REMARK  status: ('A' for Active; 'I' for Inactive)
REMARK    1  A    between atoms: C5'_1  and  C4'_6
REMARK    2  A    between atoms: N5'_3  and  C51_4
REMARK    3  A    between atoms: C51_4  and  C52_5
REMARK    4  A    between atoms: C3'_8  and  O3'_9
REMARK    5  A    between atoms: C2'_10  and  O2'_11
REMARK    6  A    between atoms: C1'_12  and  N9_13
REMARK    7  A    between atoms: C6_17  and  N6_18
REMARK                            x       y       z     vdW  Elec       q    Type
REMARK                         _______ _______ _______ _____ _____    ______ ____
ROOT
ATOM      1  C4' NEC     0      -1.736   2.244  -9.629  0.00  0.00    +0.000 C 
ATOM      2  O4' NEC     0      -2.373   2.608 -10.872  0.00  0.00    +0.000 OA
ATOM      3  C3' NEC     0      -1.166   3.586  -9.104  0.00  0.00    +0.000 C 
ATOM      4  C2' NEC     0      -0.713   4.278 -10.414  0.00  0.00    +0.000 C 
ATOM      5  C1' NEC     0      -1.517   3.564 -11.517  0.00  0.00    +0.000 C 
ENDROOT
BRANCH   5   6
ATOM      6  N9  NEC     0      -2.324   4.537 -12.257  0.00  0.00    +0.000 N 
ATOM      7  C8  NEC     0      -1.969   5.817 -12.556  0.00  0.00    +0.000 A 
ATOM      8  N7  NEC     0      -2.924   6.400 -13.223  0.00  0.00    +0.000 NA
ATOM      9  C5  NEC     0      -3.949   5.531 -13.393  0.00  0.00    +0.000 A 
ATOM     10  C6  NEC     0      -5.207   5.597 -14.016  0.00  0.00    +0.000 C 
ATOM     11  N1  NEC     0      -5.983   4.520 -13.992  0.00  0.00    +0.000 NA
ATOM     12  C2  NEC     0      -5.590   3.408 -13.398  0.00  0.00    +0.000 C 
ATOM     13  N3  NEC     0      -4.421   3.301 -12.802  0.00  0.00    +0.000 N 
ATOM     14  C4  NEC     0      -3.575   4.325 -12.780  0.00  0.00    +0.000 A 
ATOM     15  H   NEC     0      -4.172   2.453 -12.368  0.00  0.00    +0.000 HD
BRANCH  10  16
ATOM     16  N6  NEC     0      -5.628   6.758 -14.641  0.00  0.00    +0.000 NA
ATOM     17 HN61 NEC     0      -6.560   6.869 -14.883  0.00  0.00    +0.000 HD
ATOM     18 HN62 NEC     0      -4.989   7.462 -14.837  0.00  0.00    +0.000 HD
ENDBRANCH  10  16
ENDBRANCH   5   6
BRANCH   1  19
ATOM     19  C5' NEC     0      -2.745   1.681  -8.660  0.00  0.00    +0.000 C 
ATOM     20  O5' NEC     0      -3.931   1.811  -8.878  0.00  0.00    +0.000 OA
ATOM     21  N5' NEC     0      -2.329   1.033  -7.555  0.00  0.00    +0.000 N 
ATOM     22  HN5 NEC     0      -1.381   0.930  -7.382  0.00  0.00    +0.000 HD
BRANCH  21  23
ATOM     23  C51 NEC     0      -3.309   0.486  -6.615  0.00  0.00    +0.000 C 
ATOM     24  C52 NEC     0      -3.381  -1.034  -6.780  0.00  0.00    +0.000 C 
ENDBRANCH  21  23
ENDBRANCH   1  19
BRANCH   3  25
ATOM     25  O3' NEC     0      -0.055   3.368  -8.232  0.00  0.00    +0.000 OA
ATOM     26 HO3' NEC     0       0.497   4.160  -8.278  0.00  0.00    +0.000 HD
ENDBRANCH   3  25
BRANCH   4  27
ATOM     27  O2' NEC     0       0.690   4.093 -10.618  0.00  0.00    +0.000 OA
ATOM     28 HO2' NEC     0       0.993   3.481  -9.933  0.00  0.00    +0.000 HD
ENDBRANCH   4  27
TORSDOF 6
ENDMDL
MODEL 16
REMARK VINA RESULT:      -5.9      6.490      8.992
REMARK  Name = NEC.pdb
REMARK  7 active torsions:
REMARK  status: ('A' for Active; 'I' for Inactive)
REMARK    1  A    between atoms: C5'_1  and  C4'_6
REMARK    2  A    between atoms: N5'_3  and  C51_4
REMARK    3  A    between atoms: C51_4  and  C52_5
REMARK    4  A    between atoms: C3'_8  and  O3'_9
REMARK    5  A    between atoms: C2'_10  and  O2'_11
REMARK    6  A    between atoms: C1'_12  and  N9_13
REMARK    7  A    between atoms: C6_17  and  N6_18
REMARK                            x       y       z     vdW  Elec       q    Type
REMARK                         _______ _______ _______ _____ _____    ______ ____
ROOT
ATOM      1  C4' NEC     0      -4.291   4.233 -14.087  0.00  0.00    +0.000 C 
ATOM      2  O4' NEC     0      -5.365   4.170 -15.049  0.00  0.00    +0.000 OA
ATOM      3  C3' NEC     0      -4.236   5.732 -13.698  0.00  0.00    +0.000 C 
ATOM      4  C2' NEC     0      -4.551   6.427 -15.047  0.00  0.00    +0.000 C 
ATOM      5  C1' NEC     0      -5.253   5.337 -15.879  0.00  0.00    +0.000 C 
ENDROOT
BRANCH   5   6
ATOM      6  N9  NEC     0      -6.585   5.794 -16.279  0.00  0.00    +0.000 N 
ATOM      7  C8  NEC     0      -7.774   5.293 -15.842  0.00  0.00    +0.000 A 
ATOM      8  N7  NEC     0      -8.760   5.932 -16.402  0.00  0.00    +0.000 NA
ATOM      9  C5  NEC     0      -8.267   6.882 -17.233  0.00  0.00    +0.000 A 
ATOM     10  C6  NEC     0      -8.838   7.848 -18.078  0.00  0.00    +0.000 C 
ATOM     11  N1  NEC     0      -8.028   8.642 -18.770  0.00  0.00    +0.000 NA
ATOM     12  C2  NEC     0      -6.717   8.532 -18.673  0.00  0.00    +0.000 C 
ATOM     13  N3  NEC     0      -6.138   7.641 -17.895  0.00  0.00    +0.000 N 
ATOM     14  C4  NEC     0      -6.867   6.808 -17.159  0.00  0.00    +0.000 A 
ATOM     15  H   NEC     0      -5.155   7.592 -17.856  0.00  0.00    +0.000 HD
BRANCH  10  16
ATOM     16  N6  NEC     0     -10.212   7.972 -18.186  0.00  0.00    +0.000 NA
ATOM     17 HN61 NEC     0     -10.759   7.187 -18.341  0.00  0.00    +0.000 HD
ATOM     18 HN62 NEC     0     -10.628   8.845 -18.104  0.00  0.00    +0.000 HD
ENDBRANCH  10  16
ENDBRANCH   5   6
BRANCH   1  19
ATOM     19  C5' NEC     0      -4.606   3.384 -12.883  0.00  0.00    +0.000 C 
ATOM     20  O5' NEC     0      -5.684   2.834 -12.795  0.00  0.00    +0.000 OA
ATOM     21  N5' NEC     0      -3.691   3.234 -11.905  0.00  0.00    +0.000 N 
ATOM     22  HN5 NEC     0      -2.830   3.673 -11.976  0.00  0.00    +0.000 HD
BRANCH  21  23
ATOM     23  C51 NEC     0      -3.998   2.407 -10.735  0.00  0.00    +0.000 C 
ATOM     24  C52 NEC     0      -2.934   2.631  -9.660  0.00  0.00    +0.000 C 
ENDBRANCH  21  23
ENDBRANCH   1  19
BRANCH   3  25
ATOM     25  O3' NEC     0      -2.937   6.096 -13.227  0.00  0.00    +0.000 OA
ATOM     26 HO3' NEC     0      -2.408   6.314 -14.007  0.00  0.00    +0.000 HD
ENDBRANCH   3  25
BRANCH   4  27
ATOM     27  O2' NEC     0      -3.343   6.846 -15.687  0.00  0.00    +0.000 OA
ATOM     28 HO2' NEC     0      -3.591   7.173 -16.563  0.00  0.00    +0.000 HD
ENDBRANCH   4  27
TORSDOF 6
ENDMDL
MODEL 17
REMARK VINA RESULT:      -5.9      6.087      8.553
REMARK  Name = NEC.pdb
REMARK  7 active torsions:
REMARK  status: ('A' for Active; 'I' for Inactive)
REMARK    1  A    between atoms: C5'_1  and  C4'_6
REMARK    2  A    between atoms: N5'_3  and  C51_4
REMARK    3  A    between atoms: C51_4  and  C52_5
REMARK    4  A    between atoms: C3'_8  and  O3'_9
REMARK    5  A    between atoms: C2'_10  and  O2'_11
REMARK    6  A    between atoms: C1'_12  and  N9_13
REMARK    7  A    between atoms: C6_17  and  N6_18
REMARK                            x       y       z     vdW  Elec       q    Type
REMARK                         _______ _______ _______ _____ _____    ______ ____
ROOT
ATOM      1  C4' NEC     0      -4.253   4.079 -13.933  0.00  0.00    +0.000 C 
ATOM      2  O4' NEC     0      -5.283   3.905 -14.929  0.00  0.00    +0.000 OA
ATOM      3  C3' NEC     0      -4.293   5.598 -13.629  0.00  0.00    +0.000 C 
ATOM      4  C2' NEC     0      -4.590   6.199 -15.026  0.00  0.00    +0.000 C 
ATOM      5  C1' NEC     0      -5.200   5.029 -15.819  0.00  0.00    +0.000 C 
ENDROOT
BRANCH   5   6
ATOM      6  N9  NEC     0      -6.538   5.389 -16.293  0.00  0.00    +0.000 N 
ATOM      7  C8  NEC     0      -7.422   6.213 -15.663  0.00  0.00    +0.000 A 
ATOM      8  N7  NEC     0      -8.515   6.313 -16.363  0.00  0.00    +0.000 NA
ATOM      9  C5  NEC     0      -8.401   5.561 -17.485  0.00  0.00    +0.000 A 
ATOM     10  C6  NEC     0      -9.237   5.290 -18.581  0.00  0.00    +0.000 C 
ATOM     11  N1  NEC     0      -8.789   4.481 -19.534  0.00  0.00    +0.000 NA
ATOM     12  C2  NEC     0      -7.588   3.939 -19.461  0.00  0.00    +0.000 C 
ATOM     13  N3  NEC     0      -6.771   4.164 -18.453  0.00  0.00    +0.000 N 
ATOM     14  C4  NEC     0      -7.131   4.965 -17.456  0.00  0.00    +0.000 A 
ATOM     15  H   NEC     0      -5.885   3.734 -18.439  0.00  0.00    +0.000 HD
BRANCH  10  16
ATOM     16  N6  NEC     0     -10.498   5.855 -18.667  0.00  0.00    +0.000 NA
ATOM     17 HN61 NEC     0     -10.994   6.059 -17.860  0.00  0.00    +0.000 HD
ATOM     18 HN62 NEC     0     -10.884   6.048 -19.536  0.00  0.00    +0.000 HD
ENDBRANCH  10  16
ENDBRANCH   5   6
BRANCH   1  19
ATOM     19  C5' NEC     0      -4.571   3.281 -12.695  0.00  0.00    +0.000 C 
ATOM     20  O5' NEC     0      -5.646   2.730 -12.589  0.00  0.00    +0.000 OA
ATOM     21  N5' NEC     0      -3.660   3.180 -11.707  0.00  0.00    +0.000 N 
ATOM     22  HN5 NEC     0      -2.801   3.620 -11.792  0.00  0.00    +0.000 HD
BRANCH  21  23
ATOM     23  C51 NEC     0      -3.969   2.403 -10.504  0.00  0.00    +0.000 C 
ATOM     24  C52 NEC     0      -2.856   2.596  -9.472  0.00  0.00    +0.000 C 
ENDBRANCH  21  23
ENDBRANCH   1  19
BRANCH   3  25
ATOM     25  O3' NEC     0      -3.033   6.057 -13.133  0.00  0.00    +0.000 OA
ATOM     26 HO3' NEC     0      -3.219   6.803 -12.546  0.00  0.00    +0.000 HD
ENDBRANCH   3  25
BRANCH   4  27
ATOM     27  O2' NEC     0      -3.381   6.647 -15.644  0.00  0.00    +0.000 OA
ATOM     28 HO2' NEC     0      -3.539   7.556 -15.937  0.00  0.00    +0.000 HD
ENDBRANCH   4  27
TORSDOF 6
ENDMDL
MODEL 18
REMARK VINA RESULT:      -5.7      6.128      8.817
REMARK  Name = NEC.pdb
REMARK  7 active torsions:
REMARK  status: ('A' for Active; 'I' for Inactive)
REMARK    1  A    between atoms: C5'_1  and  C4'_6
REMARK    2  A    between atoms: N5'_3  and  C51_4
REMARK    3  A    between atoms: C51_4  and  C52_5
REMARK    4  A    between atoms: C3'_8  and  O3'_9
REMARK    5  A    between atoms: C2'_10  and  O2'_11
REMARK    6  A    between atoms: C1'_12  and  N9_13
REMARK    7  A    between atoms: C6_17  and  N6_18
REMARK                            x       y       z     vdW  Elec       q    Type
REMARK                         _______ _______ _______ _____ _____    ______ ____
ROOT
ATOM      1  C4' NEC     0      -3.652   4.832 -14.189  0.00  0.00    +0.000 C 
ATOM      2  O4' NEC     0      -4.136   4.181 -15.383  0.00  0.00    +0.000 OA
ATOM      3  C3' NEC     0      -4.419   6.178 -14.171  0.00  0.00    +0.000 C 
ATOM      4  C2' NEC     0      -4.477   6.537 -15.677  0.00  0.00    +0.000 C 
ATOM      5  C1' NEC     0      -4.252   5.193 -16.396  0.00  0.00    +0.000 C 
ENDROOT
BRANCH   5   6
ATOM      6  N9  NEC     0      -5.388   4.897 -17.270  0.00  0.00    +0.000 N 
ATOM      7  C8  NEC     0      -5.351   4.166 -18.420  0.00  0.00    +0.000 A 
ATOM      8  N7  NEC     0      -6.541   4.101 -18.944  0.00  0.00    +0.000 NA
ATOM      9  C5  NEC     0      -7.414   4.784 -18.166  0.00  0.00    +0.000 A 
ATOM     10  C6  NEC     0      -8.792   5.052 -18.227  0.00  0.00    +0.000 C 
ATOM     11  N1  NEC     0      -9.340   5.779 -17.261  0.00  0.00    +0.000 NA
ATOM     12  C2  NEC     0      -8.614   6.246 -16.262  0.00  0.00    +0.000 C 
ATOM     13  N3  NEC     0      -7.320   6.021 -16.163  0.00  0.00    +0.000 N 
ATOM     14  C4  NEC     0      -6.686   5.297 -17.081  0.00  0.00    +0.000 A 
ATOM     15  H   NEC     0      -6.817   6.392 -15.403  0.00  0.00    +0.000 HD
BRANCH  10  16
ATOM     16  N6  NEC     0      -9.562   4.567 -19.270  0.00  0.00    +0.000 NA
ATOM     17 HN61 NEC     0      -9.791   5.145 -20.015  0.00  0.00    +0.000 HD
ATOM     18 HN62 NEC     0      -9.871   3.647 -19.257  0.00  0.00    +0.000 HD
ENDBRANCH  10  16
ENDBRANCH   5   6
BRANCH   1  19
ATOM     19  C5' NEC     0      -3.984   4.015 -12.967  0.00  0.00    +0.000 C 
ATOM     20  O5' NEC     0      -3.147   3.847 -12.105  0.00  0.00    +0.000 OA
ATOM     21  N5' NEC     0      -5.211   3.474 -12.832  0.00  0.00    +0.000 N 
ATOM     22  HN5 NEC     0      -5.879   3.610 -13.520  0.00  0.00    +0.000 HD
BRANCH  21  23
ATOM     23  C51 NEC     0      -5.534   2.682 -11.643  0.00  0.00    +0.000 C 
ATOM     24  C52 NEC     0      -6.072   1.316 -12.071  0.00  0.00    +0.000 C 
ENDBRANCH  21  23
ENDBRANCH   1  19
BRANCH   3  25
ATOM     25  O3' NEC     0      -3.700   7.171 -13.437  0.00  0.00    +0.000 OA
ATOM     26 HO3' NEC     0      -3.427   6.760 -12.604  0.00  0.00    +0.000 HD
ENDBRANCH   3  25
BRANCH   4  27
ATOM     27  O2' NEC     0      -3.440   7.463 -16.011  0.00  0.00    +0.000 OA
ATOM     28 HO2' NEC     0      -2.600   7.004 -15.869  0.00  0.00    +0.000 HD
ENDBRANCH   4  27
TORSDOF 6
ENDMDL
MODEL 19
REMARK VINA RESULT:      -5.7      5.910      8.280
REMARK  Name = NEC.pdb
REMARK  7 active torsions:
REMARK  status: ('A' for Active; 'I' for Inactive)
REMARK    1  A    between atoms: C5'_1  and  C4'_6
REMARK    2  A    between atoms: N5'_3  and  C51_4
REMARK    3  A    between atoms: C51_4  and  C52_5
REMARK    4  A    between atoms: C3'_8  and  O3'_9
REMARK    5  A    between atoms: C2'_10  and  O2'_11
REMARK    6  A    between atoms: C1'_12  and  N9_13
REMARK    7  A    between atoms: C6_17  and  N6_18
REMARK                            x       y       z     vdW  Elec       q    Type
REMARK                         _______ _______ _______ _____ _____    ______ ____
ROOT
ATOM      1  C4' NEC     0      -4.387   3.587 -13.941  0.00  0.00    +0.000 C 
ATOM      2  O4' NEC     0      -5.179   3.980 -15.082  0.00  0.00    +0.000 OA
ATOM      3  C3' NEC     0      -3.621   4.881 -13.566  0.00  0.00    +0.000 C 
ATOM      4  C2' NEC     0      -3.323   5.494 -14.957  0.00  0.00    +0.000 C 
ATOM      5  C1' NEC     0      -4.355   4.833 -15.891  0.00  0.00    +0.000 C 
ENDROOT
BRANCH   5   6
ATOM      6  N9  NEC     0      -5.178   5.860 -16.533  0.00  0.00    +0.000 N 
ATOM      7  C8  NEC     0      -4.729   7.009 -17.110  0.00  0.00    +0.000 A 
ATOM      8  N7  NEC     0      -5.732   7.691 -17.583  0.00  0.00    +0.000 NA
ATOM      9  C5  NEC     0      -6.886   7.023 -17.340  0.00  0.00    +0.000 A 
ATOM     10  C6  NEC     0      -8.243   7.265 -17.612  0.00  0.00    +0.000 C 
ATOM     11  N1  NEC     0      -9.137   6.365 -17.218  0.00  0.00    +0.000 NA
ATOM     12  C2  NEC     0      -8.768   5.268 -16.585  0.00  0.00    +0.000 C 
ATOM     13  N3  NEC     0      -7.509   5.000 -16.308  0.00  0.00    +0.000 N 
ATOM     14  C4  NEC     0      -6.543   5.839 -16.669  0.00  0.00    +0.000 A 
ATOM     15  H   NEC     0      -7.281   4.170 -15.830  0.00  0.00    +0.000 HD
BRANCH  10  16
ATOM     16  N6  NEC     0      -8.639   8.412 -18.276  0.00  0.00    +0.000 NA
ATOM     17 HN61 NEC     0      -9.503   8.446 -18.715  0.00  0.00    +0.000 HD
ATOM     18 HN62 NEC     0      -8.052   9.185 -18.302  0.00  0.00    +0.000 HD
ENDBRANCH  10  16
ENDBRANCH   5   6
BRANCH   1  19
ATOM     19  C5' NEC     0      -5.274   3.148 -12.805  0.00  0.00    +0.000 C 
ATOM     20  O5' NEC     0      -5.841   3.976 -12.124  0.00  0.00    +0.000 OA
ATOM     21  N5' NEC     0      -5.439   1.835 -12.547  0.00  0.00    +0.000 N 
ATOM     22  HN5 NEC     0      -4.986   1.174 -13.092  0.00  0.00    +0.000 HD
BRANCH  21  23
ATOM     23  C51 NEC     0      -6.303   1.409 -11.443  0.00  0.00    +0.000 C 
ATOM     24  C52 NEC     0      -5.448   0.782 -10.340  0.00  0.00    +0.000 C 
ENDBRANCH  21  23
ENDBRANCH   1  19
BRANCH   3  25
ATOM     25  O3' NEC     0      -2.409   4.579 -12.871  0.00  0.00    +0.000 OA
ATOM     26 HO3' NEC     0      -1.681   4.809 -13.465  0.00  0.00    +0.000 HD
ENDBRANCH   3  25
BRANCH   4  27
ATOM     27  O2' NEC     0      -1.993   5.170 -15.372  0.00  0.00    +0.000 OA
ATOM     28 HO2' NEC     0      -1.456   5.962 -15.228  0.00  0.00    +0.000 HD
ENDBRANCH   4  27
TORSDOF 6
ENDMDL
MODEL 20
REMARK VINA RESULT:      -5.6      7.879     10.733
REMARK  Name = NEC.pdb
REMARK  7 active torsions:
REMARK  status: ('A' for Active; 'I' for Inactive)
REMARK    1  A    between atoms: C5'_1  and  C4'_6
REMARK    2  A    between atoms: N5'_3  and  C51_4
REMARK    3  A    between atoms: C51_4  and  C52_5
REMARK    4  A    between atoms: C3'_8  and  O3'_9
REMARK    5  A    between atoms: C2'_10  and  O2'_11
REMARK    6  A    between atoms: C1'_12  and  N9_13
REMARK    7  A    between atoms: C6_17  and  N6_18
REMARK                            x       y       z     vdW  Elec       q    Type
REMARK                         _______ _______ _______ _____ _____    ______ ____
ROOT
ATOM      1  C4' NEC     0      -3.651   6.418 -16.293  0.00  0.00    +0.000 C 
ATOM      2  O4' NEC     0      -4.429   5.751 -17.309  0.00  0.00    +0.000 OA
ATOM      3  C3' NEC     0      -4.590   7.546 -15.796  0.00  0.00    +0.000 C 
ATOM      4  C2' NEC     0      -5.295   7.978 -17.106  0.00  0.00    +0.000 C 
ATOM      5  C1' NEC     0      -5.118   6.772 -18.048  0.00  0.00    +0.000 C 
ENDROOT
BRANCH   5   6
ATOM      6  N9  NEC     0      -6.427   6.278 -18.480  0.00  0.00    +0.000 N 
ATOM      7  C8  NEC     0      -7.615   6.934 -18.364  0.00  0.00    +0.000 A 
ATOM      8  N7  NEC     0      -8.577   6.204 -18.851  0.00  0.00    +0.000 NA
ATOM      9  C5  NEC     0      -8.067   5.035 -19.309  0.00  0.00    +0.000 A 
ATOM     10  C6  NEC     0      -8.610   3.893 -19.921  0.00  0.00    +0.000 C 
ATOM     11  N1  NEC     0      -7.791   2.902 -20.251  0.00  0.00    +0.000 NA
ATOM     12  C2  NEC     0      -6.495   2.978 -20.013  0.00  0.00    +0.000 C 
ATOM     13  N3  NEC     0      -5.942   4.028 -19.442  0.00  0.00    +0.000 N 
ATOM     14  C4  NEC     0      -6.682   5.072 -19.082  0.00  0.00    +0.000 A 
ATOM     15  H   NEC     0      -4.971   4.040 -19.280  0.00  0.00    +0.000 HD
BRANCH  10  16
ATOM     16  N6  NEC     0      -9.968   3.804 -20.175  0.00  0.00    +0.000 NA
ATOM     17 HN61 NEC     0     -10.513   3.170 -19.684  0.00  0.00    +0.000 HD
ATOM     18 HN62 NEC     0     -10.374   4.377 -20.844  0.00  0.00    +0.000 HD
ENDBRANCH  10  16
ENDBRANCH   5   6
BRANCH   1  19
ATOM     19  C5' NEC     0      -3.321   5.470 -15.169  0.00  0.00    +0.000 C 
ATOM     20  O5' NEC     0      -3.349   4.272 -15.359  0.00  0.00    +0.000 OA
ATOM     21  N5' NEC     0      -2.993   5.952 -13.954  0.00  0.00    +0.000 N 
ATOM     22  HN5 NEC     0      -2.970   6.909 -13.803  0.00  0.00    +0.000 HD
BRANCH  21  23
ATOM     23  C51 NEC     0      -2.671   5.030 -12.863  0.00  0.00    +0.000 C 
ATOM     24  C52 NEC     0      -1.379   5.481 -12.179  0.00  0.00    +0.000 C 
ENDBRANCH  21  23
ENDBRANCH   1  19
BRANCH   3  25
ATOM     25  O3' NEC     0      -3.843   8.629 -15.238  0.00  0.00    +0.000 OA
ATOM     26 HO3' NEC     0      -4.446   9.114 -14.657  0.00  0.00    +0.000 HD
ENDBRANCH   3  25
BRANCH   4  27
ATOM     27  O2' NEC     0      -4.665   9.138 -17.655  0.00  0.00    +0.000 OA
ATOM     28 HO2' NEC     0      -5.045   9.273 -18.534  0.00  0.00    +0.000 HD
ENDBRANCH   4  27
TORSDOF 6
ENDMDL
