REMARK VINA RESULT:      -9.8      0.000      0.000
REMARK  Name = NGI.pdb
REMARK  14 active torsions:
REMARK  status: ('A' for Active; 'I' for Inactive)
REMARK    1  A    between atoms: C1_1  and  C2_4
REMARK    2  A    between atoms: N1_2  and  C2_4
REMARK    3  A    between atoms: N2_5  and  C5_13
REMARK    4  A    between atoms: C3_7  and  C4_10
REMARK    5  A    between atoms: O3_9  and  C6_16
REMARK    6  A    between atoms: N4_11  and  C10_23
REMARK    7  A    between atoms: O4_12  and  C7_19
REMARK    8  A    between atoms: O5_15  and  C20_33
REMARK    9  A    between atoms: N6_17  and  C12_25
REMARK   10  A    between atoms: C12_25  and  C13_26
REMARK   11  A    between atoms: C13_26  and  C14_27
REMARK   12  A    between atoms: C17_30  and  C18_31
REMARK   13  A    between atoms: C18_31  and  C19_32
REMARK   14  A    between atoms: C19_32  and  C20_33
REMARK                            x       y       z     vdW  Elec       q    Type
REMARK                         _______ _______ _______ _____ _____    ______ ____
ROOT
ATOM      1  N2  NGI     0      -4.386   4.804 -15.371  0.00  0.00    +0.000 N 
ATOM      2  N3  NGI     0      -2.689   5.943 -14.604  0.00  0.00    +0.000 NA
ATOM      3  N5  NGI     0      -3.129   3.801 -11.649  0.00  0.00    +0.000 NA
ATOM      4  N6  NGI     0      -4.736   2.129 -11.375  0.00  0.00    +0.000 N 
ATOM      5  N7  NGI     0      -4.647   3.365 -13.350  0.00  0.00    +0.000 N 
ATOM      6  C8  NGI     0      -3.487   5.799 -15.621  0.00  0.00    +0.000 A 
ATOM      7  C9  NGI     0      -3.030   5.057 -13.635  0.00  0.00    +0.000 A 
ATOM      8  C10 NGI     0      -2.538   4.762 -12.351  0.00  0.00    +0.000 C 
ATOM      9  C11 NGI     0      -4.154   3.121 -12.147  0.00  0.00    +0.000 C 
ATOM     10  C23 NGI     0      -4.120   4.314 -14.117  0.00  0.00    +0.000 A 
ATOM     11  HN6 NGI     0      -5.485   1.621 -11.722  0.00  0.00    +0.000 HD
ATOM     12  H   NGI     0      -5.411   2.840 -13.680  0.00  0.00    +0.000 HD
ENDROOT
BRANCH   1  15
ATOM     13  O2  NGI     0      -5.035   4.501 -17.650  0.00  0.00    +0.000 OA
ATOM     14  C4  NGI     0      -6.261   4.508 -18.413  0.00  0.00    +0.000 C 
ATOM     15  C5  NGI     0      -5.445   4.346 -16.273  0.00  0.00    +0.000 C 
ATOM     16  C6  NGI     0      -6.697   5.239 -16.130  0.00  0.00    +0.000 C 
ATOM     17  C7  NGI     0      -7.246   5.348 -17.571  0.00  0.00    +0.000 C 
BRANCH  14  20
ATOM     18  N1  NGI     0      -5.441   6.356 -19.838  0.00  0.00    +0.000 N 
ATOM     19  O1  NGI     0      -6.401   4.585 -20.768  0.00  0.00    +0.000 OA
ATOM     20  C3  NGI     0      -6.039   5.152 -19.757  0.00  0.00    +0.000 C 
ATOM     21  HN1 NGI     0      -5.152   6.809 -19.030  0.00  0.00    +0.000 HD
BRANCH  18  23
ATOM     22  C1  NGI     0      -4.254   8.153 -20.997  0.00  0.00    +0.000 C 
ATOM     23  C2  NGI     0      -5.226   6.981 -21.145  0.00  0.00    +0.000 C 
ENDBRANCH  18  23
ENDBRANCH  14  20
BRANCH  16  24
ATOM     24  O3  NGI     0      -7.658   4.621 -15.274  0.00  0.00    +0.000 OA
ATOM     25  HO3 NGI     0      -8.250   5.245 -14.831  0.00  0.00    +0.000 HD
ENDBRANCH  16  24
BRANCH  17  26
ATOM     26  O4  NGI     0      -8.564   4.801 -17.647  0.00  0.00    +0.000 OA
ATOM     27  HO4 NGI     0      -8.726   4.078 -17.025  0.00  0.00    +0.000 HD
ENDBRANCH  17  26
ENDBRANCH   1  15
BRANCH   8  28
ATOM     28  N4  NGI     0      -1.461   5.456 -11.831  0.00  0.00    +0.000 NA
ATOM     29  HN4 NGI     0      -0.942   6.044 -12.402  0.00  0.00    +0.000 HD
ATOM     30 HN4A NGI     0      -1.224   5.356 -10.896  0.00  0.00    +0.000 HD
ENDBRANCH   8  28
BRANCH   4  31
ATOM     31  C12 NGI     0      -4.219   1.846 -10.034  0.00  0.00    +0.000 C 
BRANCH  31  32
ATOM     32  C13 NGI     0      -4.870   0.572  -9.493  0.00  0.00    +0.000 C 
BRANCH  32  33
ATOM     33  C14 NGI     0      -4.011  -0.007  -8.399  0.00  0.00    +0.000 A 
ATOM     34  C15 NGI     0      -4.579  -0.804  -7.423  0.00  0.00    +0.000 A 
ATOM     35  C16 NGI     0      -3.790  -1.335  -6.419  0.00  0.00    +0.000 A 
ATOM     36  C17 NGI     0      -2.434  -1.067  -6.391  0.00  0.00    +0.000 A 
ATOM     37  C21 NGI     0      -1.866  -0.270  -7.367  0.00  0.00    +0.000 A 
ATOM     38  C22 NGI     0      -2.653   0.255  -8.375  0.00  0.00    +0.000 A 
BRANCH  36  39
ATOM     39  C18 NGI     0      -1.575  -1.646  -5.297  0.00  0.00    +0.000 C 
BRANCH  39  40
ATOM     40  C19 NGI     0      -2.309  -2.813  -4.635  0.00  0.00    +0.000 C 
BRANCH  40  42
ATOM     41  O6  NGI     0      -1.101  -3.887  -2.920  0.00  0.00    +0.000 OA
ATOM     42  C20 NGI     0      -1.305  -3.805  -4.108  0.00  0.00    +0.000 C 
BRANCH  42  43
ATOM     43  O5  NGI     0      -0.636  -4.599  -4.960  0.00  0.00    +0.000 OA
ATOM     44  HO5 NGI     0      -0.851  -4.514  -5.899  0.00  0.00    +0.000 HD
ENDBRANCH  42  43
ENDBRANCH  40  42
ENDBRANCH  39  40
ENDBRANCH  36  39
ENDBRANCH  32  33
ENDBRANCH  31  32
ENDBRANCH   4  31
TORSDOF 13
