REMARK VINA RESULT:      -6.4      5.087      7.903
REMARK  Name = ADN.pdb
REMARK  6 active torsions:
REMARK  status: ('A' for Active; 'I' for Inactive)
REMARK    1  A    between atoms: O5'_1  and  C5'_2
REMARK    2  A    between atoms: C5'_2  and  C4'_3
REMARK    3  A    between atoms: C3'_5  and  O3'_6
REMARK    4  A    between atoms: C2'_7  and  O2'_8
REMARK    5  A    between atoms: C1'_9  and  N9_10
REMARK    6  A    between atoms: C6_14  and  N6_15
REMARK                            x       y       z     vdW  Elec       q    Type
REMARK                         _______ _______ _______ _____ _____    ______ ____
ROOT
ATOM      1  N9  ADN     0      -4.114   3.877 -12.603  0.00  0.00    +0.000 N 
ATOM      2  C8  ADN     0      -4.932   2.923 -12.074  0.00  0.00    +0.000 A 
ATOM      3  N7  ADN     0      -4.331   2.316 -11.091  0.00  0.00    +0.000 NA
ATOM      4  C5  ADN     0      -3.090   2.838 -10.931  0.00  0.00    +0.000 A 
ATOM      5  C6  ADN     0      -2.023   2.595 -10.050  0.00  0.00    +0.000 C 
ATOM      6  N1  ADN     0      -0.919   3.322 -10.177  0.00  0.00    +0.000 NA
ATOM      7  C2  ADN     0      -0.821   4.259 -11.103  0.00  0.00    +0.000 C 
ATOM      8  N3  ADN     0      -1.797   4.526 -11.945  0.00  0.00    +0.000 N 
ATOM      9  C4  ADN     0      -2.939   3.848 -11.894  0.00  0.00    +0.000 A 
ATOM     10  H   ADN     0      -1.679   5.234 -12.619  0.00  0.00    +0.000 HD
ENDROOT
BRANCH   1  15
ATOM     11  C4' ADN     0      -6.103   5.441 -15.142  0.00  0.00    +0.000 C 
ATOM     12  O4' ADN     0      -5.854   4.999 -13.789  0.00  0.00    +0.000 OA
ATOM     13  C3' ADN     0      -5.201   4.547 -16.019  0.00  0.00    +0.000 C 
ATOM     14  C2' ADN     0      -4.073   4.095 -15.062  0.00  0.00    +0.000 C 
ATOM     15  C1' ADN     0      -4.431   4.768 -13.719  0.00  0.00    +0.000 C 
BRANCH  13  16
ATOM     16  O3' ADN     0      -4.662   5.297 -17.111  0.00  0.00    +0.000 OA
ATOM     17 HO3' ADN     0      -3.701   5.197 -17.070  0.00  0.00    +0.000 HD
ENDBRANCH  13  16
BRANCH  14  18
ATOM     18  O2' ADN     0      -2.804   4.550 -15.535  0.00  0.00    +0.000 OA
ATOM     19 HO2' ADN     0      -2.249   3.766 -15.648  0.00  0.00    +0.000 HD
ENDBRANCH  14  18
BRANCH  11  20
ATOM     20  C5' ADN     0      -7.575   5.238 -15.506  0.00  0.00    +0.000 C 
BRANCH  20  21
ATOM     21  O5' ADN     0      -7.668   4.682 -16.820  0.00  0.00    +0.000 OA
ATOM     22 HO5' ADN     0      -7.594   5.420 -17.440  0.00  0.00    +0.000 HD
ENDBRANCH  20  21
ENDBRANCH  11  20
ENDBRANCH   1  15
BRANCH   5  23
ATOM     23  N6  ADN     0      -2.117   1.615  -9.078  0.00  0.00    +0.000 NA
ATOM     24 HN61 ADN     0      -1.404   0.965  -8.974  0.00  0.00    +0.000 HD
ATOM     25 HN62 ADN     0      -2.892   1.581  -8.496  0.00  0.00    +0.000 HD
ENDBRANCH   5  23
TORSDOF 6
