REMARK VINA RESULT:      -6.3      5.308      8.089
REMARK  Name = ADN.pdb
REMARK  6 active torsions:
REMARK  status: ('A' for Active; 'I' for Inactive)
REMARK    1  A    between atoms: O5'_1  and  C5'_2
REMARK    2  A    between atoms: C5'_2  and  C4'_3
REMARK    3  A    between atoms: C3'_5  and  O3'_6
REMARK    4  A    between atoms: C2'_7  and  O2'_8
REMARK    5  A    between atoms: C1'_9  and  N9_10
REMARK    6  A    between atoms: C6_14  and  N6_15
REMARK                            x       y       z     vdW  Elec       q    Type
REMARK                         _______ _______ _______ _____ _____    ______ ____
ROOT
ATOM      1  N9  ADN     0      -2.799   4.854 -13.112  0.00  0.00    +0.000 N 
ATOM      2  C8  ADN     0      -1.662   5.557 -12.841  0.00  0.00    +0.000 A 
ATOM      3  N7  ADN     0      -1.159   5.169 -11.706  0.00  0.00    +0.000 NA
ATOM      4  C5  ADN     0      -1.941   4.198 -11.175  0.00  0.00    +0.000 A 
ATOM      5  C6  ADN     0      -1.892   3.419 -10.006  0.00  0.00    +0.000 C 
ATOM      6  N1  ADN     0      -2.852   2.525  -9.800  0.00  0.00    +0.000 NA
ATOM      7  C2  ADN     0      -3.830   2.360 -10.672  0.00  0.00    +0.000 C 
ATOM      8  N3  ADN     0      -3.913   3.062 -11.784  0.00  0.00    +0.000 N 
ATOM      9  C4  ADN     0      -2.998   3.980 -12.073  0.00  0.00    +0.000 A 
ATOM     10  H   ADN     0      -4.660   2.904 -12.405  0.00  0.00    +0.000 HD
ENDROOT
BRANCH   1  15
ATOM     11  C4' ADN     0      -4.299   6.463 -15.943  0.00  0.00    +0.000 C 
ATOM     12  O4' ADN     0      -3.171   6.084 -15.124  0.00  0.00    +0.000 OA
ATOM     13  C3' ADN     0      -5.513   6.406 -14.991  0.00  0.00    +0.000 C 
ATOM     14  C2' ADN     0      -5.076   5.420 -13.882  0.00  0.00    +0.000 C 
ATOM     15  C1' ADN     0      -3.648   5.003 -14.295  0.00  0.00    +0.000 C 
BRANCH  13  16
ATOM     16  O3' ADN     0      -6.665   5.910 -15.677  0.00  0.00    +0.000 OA
ATOM     17 HO3' ADN     0      -7.251   5.538 -15.004  0.00  0.00    +0.000 HD
ENDBRANCH  13  16
BRANCH  14  18
ATOM     18  O2' ADN     0      -5.946   4.288 -13.848  0.00  0.00    +0.000 OA
ATOM     19 HO2' ADN     0      -6.169   4.132 -12.920  0.00  0.00    +0.000 HD
ENDBRANCH  14  18
BRANCH  11  20
ATOM     20  C5' ADN     0      -4.111   7.881 -16.486  0.00  0.00    +0.000 C 
BRANCH  20  21
ATOM     21  O5' ADN     0      -3.837   8.773 -15.403  0.00  0.00    +0.000 OA
ATOM     22 HO5' ADN     0      -4.673   8.906 -14.934  0.00  0.00    +0.000 HD
ENDBRANCH  20  21
ENDBRANCH  11  20
ENDBRANCH   1  15
BRANCH   5  23
ATOM     23  N6  ADN     0      -0.872   3.586  -9.087  0.00  0.00    +0.000 NA
ATOM     24 HN61 ADN     0      -0.179   2.912  -9.004  0.00  0.00    +0.000 HD
ATOM     25 HN62 ADN     0      -0.846   4.378  -8.527  0.00  0.00    +0.000 HD
ENDBRANCH   5  23
TORSDOF 6
