REMARK VINA RESULT:      -6.2      1.740      3.499
REMARK  Name = ADN.pdb
REMARK  6 active torsions:
REMARK  status: ('A' for Active; 'I' for Inactive)
REMARK    1  A    between atoms: O5'_1  and  C5'_2
REMARK    2  A    between atoms: C5'_2  and  C4'_3
REMARK    3  A    between atoms: C3'_5  and  O3'_6
REMARK    4  A    between atoms: C2'_7  and  O2'_8
REMARK    5  A    between atoms: C1'_9  and  N9_10
REMARK    6  A    between atoms: C6_14  and  N6_15
REMARK                            x       y       z     vdW  Elec       q    Type
REMARK                         _______ _______ _______ _____ _____    ______ ____
ROOT
ATOM      1  N9  ADN     0      -4.298   1.069  -9.031  0.00  0.00    +0.000 N 
ATOM      2  C8  ADN     0      -4.813  -0.180  -8.857  0.00  0.00    +0.000 A 
ATOM      3  N7  ADN     0      -5.544  -0.507  -9.884  0.00  0.00    +0.000 NA
ATOM      4  C5  ADN     0      -5.547   0.513 -10.776  0.00  0.00    +0.000 A 
ATOM      5  C6  ADN     0      -6.136   0.721 -12.036  0.00  0.00    +0.000 C 
ATOM      6  N1  ADN     0      -5.914   1.875 -12.654  0.00  0.00    +0.000 NA
ATOM      7  C2  ADN     0      -5.154   2.808 -12.110  0.00  0.00    +0.000 C 
ATOM      8  N3  ADN     0      -4.577   2.654 -10.936  0.00  0.00    +0.000 N 
ATOM      9  C4  ADN     0      -4.743   1.533 -10.243  0.00  0.00    +0.000 A 
ATOM     10  H   ADN     0      -4.018   3.377 -10.570  0.00  0.00    +0.000 HD
ENDROOT
BRANCH   1  15
ATOM     11  C4' ADN     0      -1.425   2.889  -7.897  0.00  0.00    +0.000 C 
ATOM     12  O4' ADN     0      -2.512   2.638  -8.814  0.00  0.00    +0.000 OA
ATOM     13  C3' ADN     0      -1.176   1.533  -7.202  0.00  0.00    +0.000 C 
ATOM     14  C2' ADN     0      -2.525   0.789  -7.334  0.00  0.00    +0.000 C 
ATOM     15  C1' ADN     0      -3.427   1.784  -8.096  0.00  0.00    +0.000 C 
BRANCH  13  16
ATOM     16  O3' ADN     0      -0.843   1.729  -5.826  0.00  0.00    +0.000 OA
ATOM     17 HO3' ADN     0      -1.636   1.516  -5.315  0.00  0.00    +0.000 HD
ENDBRANCH  13  16
BRANCH  14  18
ATOM     18  O2' ADN     0      -3.066   0.501  -6.043  0.00  0.00    +0.000 OA
ATOM     19 HO2' ADN     0      -2.579  -0.260  -5.699  0.00  0.00    +0.000 HD
ENDBRANCH  14  18
BRANCH  11  20
ATOM     20  C5' ADN     0      -0.176   3.337  -8.660  0.00  0.00    +0.000 C 
BRANCH  20  21
ATOM     21  O5' ADN     0      -0.424   3.261 -10.065  0.00  0.00    +0.000 OA
ATOM     22 HO5' ADN     0      -0.416   4.168 -10.399  0.00  0.00    +0.000 HD
ENDBRANCH  20  21
ENDBRANCH  11  20
ENDBRANCH   1  15
BRANCH   5  23
ATOM     23  N6  ADN     0      -6.934  -0.250 -12.614  0.00  0.00    +0.000 NA
ATOM     24 HN61 ADN     0      -6.611  -0.750 -13.379  0.00  0.00    +0.000 HD
ATOM     25 HN62 ADN     0      -7.815  -0.434 -12.251  0.00  0.00    +0.000 HD
ENDBRANCH   5  23
TORSDOF 6
