REMARK VINA RESULT:      -6.2      4.232      6.088
REMARK  Name = ADN.pdb
REMARK  6 active torsions:
REMARK  status: ('A' for Active; 'I' for Inactive)
REMARK    1  A    between atoms: O5'_1  and  C5'_2
REMARK    2  A    between atoms: C5'_2  and  C4'_3
REMARK    3  A    between atoms: C3'_5  and  O3'_6
REMARK    4  A    between atoms: C2'_7  and  O2'_8
REMARK    5  A    between atoms: C1'_9  and  N9_10
REMARK    6  A    between atoms: C6_14  and  N6_15
REMARK                            x       y       z     vdW  Elec       q    Type
REMARK                         _______ _______ _______ _____ _____    ______ ____
ROOT
ATOM      1  N9  ADN     0      -3.322   5.683 -13.905  0.00  0.00    +0.000 N 
ATOM      2  C8  ADN     0      -3.687   6.973 -13.659  0.00  0.00    +0.000 A 
ATOM      3  N7  ADN     0      -4.467   7.404 -14.608  0.00  0.00    +0.000 NA
ATOM      4  C5  ADN     0      -4.648   6.420 -15.523  0.00  0.00    +0.000 A 
ATOM      5  C6  ADN     0      -5.376   6.307 -16.720  0.00  0.00    +0.000 C 
ATOM      6  N1  ADN     0      -5.333   5.155 -17.380  0.00  0.00    +0.000 NA
ATOM      7  C2  ADN     0      -4.630   4.134 -16.926  0.00  0.00    +0.000 C 
ATOM      8  N3  ADN     0      -3.938   4.192 -15.807  0.00  0.00    +0.000 N 
ATOM      9  C4  ADN     0      -3.921   5.304 -15.080  0.00  0.00    +0.000 A 
ATOM     10  H   ADN     0      -3.430   3.404 -15.508  0.00  0.00    +0.000 HD
ENDROOT
BRANCH   1  15
ATOM     11  C4' ADN     0      -2.414   3.441 -11.260  0.00  0.00    +0.000 C 
ATOM     12  O4' ADN     0      -3.227   3.848 -12.382  0.00  0.00    +0.000 OA
ATOM     13  C3' ADN     0      -1.797   4.751 -10.726  0.00  0.00    +0.000 C 
ATOM     14  C2' ADN     0      -1.821   5.703 -11.945  0.00  0.00    +0.000 C 
ATOM     15  C1' ADN     0      -2.453   4.854 -13.069  0.00  0.00    +0.000 C 
BRANCH  13  16
ATOM     16  O3' ADN     0      -0.454   4.531 -10.288  0.00  0.00    +0.000 OA
ATOM     17 HO3' ADN     0      -0.510   4.090  -9.429  0.00  0.00    +0.000 HD
ENDBRANCH  13  16
BRANCH  14  18
ATOM     18  O2' ADN     0      -0.494   6.101 -12.295  0.00  0.00    +0.000 OA
ATOM     19 HO2' ADN     0      -0.409   7.034 -12.057  0.00  0.00    +0.000 HD
ENDBRANCH  14  18
BRANCH  11  20
ATOM     20  C5' ADN     0      -3.280   2.780 -10.185  0.00  0.00    +0.000 C 
BRANCH  20  21
ATOM     21  O5' ADN     0      -2.645   2.916  -8.912  0.00  0.00    +0.000 OA
ATOM     22 HO5' ADN     0      -1.925   3.552  -9.026  0.00  0.00    +0.000 HD
ENDBRANCH  20  21
ENDBRANCH  11  20
ENDBRANCH   1  15
BRANCH   5  23
ATOM     23  N6  ADN     0      -6.115   7.372 -17.203  0.00  0.00    +0.000 NA
ATOM     24 HN61 ADN     0      -5.776   7.902 -17.942  0.00  0.00    +0.000 HD
ATOM     25 HN62 ADN     0      -6.974   7.587 -16.806  0.00  0.00    +0.000 HD
ENDBRANCH   5  23
TORSDOF 6
