REMARK VINA RESULT:      -6.3      3.100     11.529
REMARK  Name = NGI.pdb
REMARK  14 active torsions:
REMARK  status: ('A' for Active; 'I' for Inactive)
REMARK    1  A    between atoms: C1_1  and  C2_4
REMARK    2  A    between atoms: N1_2  and  C2_4
REMARK    3  A    between atoms: N2_5  and  C5_13
REMARK    4  A    between atoms: C3_7  and  C4_10
REMARK    5  A    between atoms: O3_9  and  C6_16
REMARK    6  A    between atoms: N4_11  and  C10_23
REMARK    7  A    between atoms: O4_12  and  C7_19
REMARK    8  A    between atoms: O5_15  and  C20_33
REMARK    9  A    between atoms: N6_17  and  C12_25
REMARK   10  A    between atoms: C12_25  and  C13_26
REMARK   11  A    between atoms: C13_26  and  C14_27
REMARK   12  A    between atoms: C17_30  and  C18_31
REMARK   13  A    between atoms: C18_31  and  C19_32
REMARK   14  A    between atoms: C19_32  and  C20_33
REMARK                            x       y       z     vdW  Elec       q    Type
REMARK                         _______ _______ _______ _____ _____    ______ ____
ROOT
ATOM      1  N2  NGI     0      -5.228   1.793 -10.516  0.00  0.00    +0.000 N 
ATOM      2  N3  NGI     0      -6.656   1.688 -12.164  0.00  0.00    +0.000 NA
ATOM      3  N5  NGI     0      -4.486   4.257 -13.648  0.00  0.00    +0.000 NA
ATOM      4  N6  NGI     0      -2.555   5.161 -12.695  0.00  0.00    +0.000 N 
ATOM      5  N7  NGI     0      -3.777   3.531 -11.561  0.00  0.00    +0.000 N 
ATOM      6  C8  NGI     0      -6.366   1.208 -10.990  0.00  0.00    +0.000 A 
ATOM      7  C9  NGI     0      -5.729   2.614 -12.514  0.00  0.00    +0.000 A 
ATOM      8  C10 NGI     0      -5.533   3.439 -13.636  0.00  0.00    +0.000 C 
ATOM      9  C11 NGI     0      -3.631   4.290 -12.634  0.00  0.00    +0.000 C 
ATOM     10  C23 NGI     0      -4.801   2.689 -11.463  0.00  0.00    +0.000 A 
ATOM     11  HN6 NGI     0      -1.920   5.200 -11.965  0.00  0.00    +0.000 HD
ATOM     12  H   NGI     0      -3.121   3.591 -10.829  0.00  0.00    +0.000 HD
ENDROOT
BRANCH   1  15
ATOM     13  O2  NGI     0      -3.428   2.366  -9.053  0.00  0.00    +0.000 OA
ATOM     14  C4  NGI     0      -2.617   1.703  -8.059  0.00  0.00    +0.000 C 
ATOM     15  C5  NGI     0      -4.583   1.517  -9.230  0.00  0.00    +0.000 C 
ATOM     16  C6  NGI     0      -4.023   0.077  -9.207  0.00  0.00    +0.000 C 
ATOM     17  C7  NGI     0      -2.699   0.203  -8.419  0.00  0.00    +0.000 C 
BRANCH  14  20
ATOM     18  N1  NGI     0      -0.594   2.329  -9.339  0.00  0.00    +0.000 N 
ATOM     19  O1  NGI     0      -0.580   2.439  -7.123  0.00  0.00    +0.000 OA
ATOM     20  C3  NGI     0      -1.191   2.183  -8.139  0.00  0.00    +0.000 C 
ATOM     21  HN1 NGI     0      -1.083   2.124 -10.151  0.00  0.00    +0.000 HD
BRANCH  18  23
ATOM     22  C1  NGI     0       1.385   2.413 -10.772  0.00  0.00    +0.000 C 
ATOM     23  C2  NGI     0       0.792   2.795  -9.415  0.00  0.00    +0.000 C 
ENDBRANCH  18  23
ENDBRANCH  14  20
BRANCH  16  24
ATOM     24  O3  NGI     0      -4.926  -0.801  -8.532  0.00  0.00    +0.000 OA
ATOM     25  HO3 NGI     0      -5.819  -0.444  -8.430  0.00  0.00    +0.000 HD
ENDBRANCH  16  24
BRANCH  17  26
ATOM     26  O4  NGI     0      -2.745  -0.595  -7.234  0.00  0.00    +0.000 OA
ATOM     27  HO4 NGI     0      -1.897  -0.664  -6.773  0.00  0.00    +0.000 HD
ENDBRANCH  17  26
ENDBRANCH   1  15
BRANCH   8  28
ATOM     28  N4  NGI     0      -6.411   3.399 -14.703  0.00  0.00    +0.000 NA
ATOM     29  HN4 NGI     0      -6.592   2.557 -15.150  0.00  0.00    +0.000 HD
ATOM     30 HN4A NGI     0      -6.845   4.211 -15.006  0.00  0.00    +0.000 HD
ENDBRANCH   8  28
BRANCH   4  31
ATOM     31  C12 NGI     0      -2.377   6.024 -13.867  0.00  0.00    +0.000 C 
BRANCH  31  32
ATOM     32  C13 NGI     0      -3.462   7.103 -13.875  0.00  0.00    +0.000 C 
BRANCH  32  33
ATOM     33  C14 NGI     0      -3.963   7.300 -15.283  0.00  0.00    +0.000 A 
ATOM     34  C15 NGI     0      -4.129   8.577 -15.785  0.00  0.00    +0.000 A 
ATOM     35  C16 NGI     0      -4.590   8.757 -17.076  0.00  0.00    +0.000 A 
ATOM     36  C17 NGI     0      -4.886   7.660 -17.864  0.00  0.00    +0.000 A 
ATOM     37  C21 NGI     0      -4.721   6.384 -17.361  0.00  0.00    +0.000 A 
ATOM     38  C22 NGI     0      -4.254   6.203 -16.073  0.00  0.00    +0.000 A 
BRANCH  36  39
ATOM     39  C18 NGI     0      -5.388   7.858 -19.271  0.00  0.00    +0.000 C 
BRANCH  39  40
ATOM     40  C19 NGI     0      -5.682   6.497 -19.904  0.00  0.00    +0.000 C 
BRANCH  40  42
ATOM     41  O6  NGI     0      -7.571   5.624 -21.010  0.00  0.00    +0.000 OA
ATOM     42  C20 NGI     0      -7.163   6.365 -20.146  0.00  0.00    +0.000 C 
BRANCH  42  43
ATOM     43  O5  NGI     0      -8.030   7.070 -19.402  0.00  0.00    +0.000 OA
ATOM     44  HO5 NGI     0      -7.678   7.508 -18.615  0.00  0.00    +0.000 HD
ENDBRANCH  42  43
ENDBRANCH  40  42
ENDBRANCH  39  40
ENDBRANCH  36  39
ENDBRANCH  32  33
ENDBRANCH  31  32
ENDBRANCH   4  31
TORSDOF 13
