REMARK VINA RESULT:      -5.9      3.503     11.504
REMARK  Name = NGI.pdb
REMARK  14 active torsions:
REMARK  status: ('A' for Active; 'I' for Inactive)
REMARK    1  A    between atoms: C1_1  and  C2_4
REMARK    2  A    between atoms: N1_2  and  C2_4
REMARK    3  A    between atoms: N2_5  and  C5_13
REMARK    4  A    between atoms: C3_7  and  C4_10
REMARK    5  A    between atoms: O3_9  and  C6_16
REMARK    6  A    between atoms: N4_11  and  C10_23
REMARK    7  A    between atoms: O4_12  and  C7_19
REMARK    8  A    between atoms: O5_15  and  C20_33
REMARK    9  A    between atoms: N6_17  and  C12_25
REMARK   10  A    between atoms: C12_25  and  C13_26
REMARK   11  A    between atoms: C13_26  and  C14_27
REMARK   12  A    between atoms: C17_30  and  C18_31
REMARK   13  A    between atoms: C18_31  and  C19_32
REMARK   14  A    between atoms: C19_32  and  C20_33
REMARK                            x       y       z     vdW  Elec       q    Type
REMARK                         _______ _______ _______ _____ _____    ______ ____
ROOT
ATOM      1  N2  NGI     0      -3.967   1.228  -9.416  0.00  0.00    +0.000 N 
ATOM      2  N3  NGI     0      -5.407  -0.350  -9.868  0.00  0.00    +0.000 NA
ATOM      3  N5  NGI     0      -6.248   1.818 -12.714  0.00  0.00    +0.000 NA
ATOM      4  N6  NGI     0      -5.265   3.873 -13.231  0.00  0.00    +0.000 N 
ATOM      5  N7  NGI     0      -4.562   2.667 -11.364  0.00  0.00    +0.000 N 
ATOM      6  C8  NGI     0      -4.481   0.023  -9.033  0.00  0.00    +0.000 A 
ATOM      7  C9  NGI     0      -5.550   0.593 -10.832  0.00  0.00    +0.000 A 
ATOM      8  C10 NGI     0      -6.374   0.730 -11.964  0.00  0.00    +0.000 C 
ATOM      9  C11 NGI     0      -5.357   2.756 -12.417  0.00  0.00    +0.000 C 
ATOM     10  C23 NGI     0      -4.627   1.614 -10.555  0.00  0.00    +0.000 A 
ATOM     11  HN6 NGI     0      -4.620   4.567 -13.031  0.00  0.00    +0.000 HD
ATOM     12  H   NGI     0      -3.917   3.387 -11.177  0.00  0.00    +0.000 HD
ENDROOT
BRANCH   1  15
ATOM     13  O2  NGI     0      -2.878   3.343  -9.193  0.00  0.00    +0.000 OA
ATOM     14  C4  NGI     0      -1.559   3.826  -8.864  0.00  0.00    +0.000 C 
ATOM     15  C5  NGI     0      -2.908   1.974  -8.732  0.00  0.00    +0.000 C 
ATOM     16  C6  NGI     0      -1.521   1.402  -9.102  0.00  0.00    +0.000 C 
ATOM     17  C7  NGI     0      -0.613   2.649  -9.191  0.00  0.00    +0.000 C 
BRANCH  14  20
ATOM     18  N1  NGI     0      -1.444   5.006 -11.035  0.00  0.00    +0.000 N 
ATOM     19  O1  NGI     0      -0.726   6.010  -9.192  0.00  0.00    +0.000 OA
ATOM     20  C3  NGI     0      -1.213   5.026  -9.708  0.00  0.00    +0.000 C 
ATOM     21  HN1 NGI     0      -1.833   4.219 -11.448  0.00  0.00    +0.000 HD
BRANCH  18  23
ATOM     22  C1  NGI     0      -2.188   6.378 -12.917  0.00  0.00    +0.000 C 
ATOM     23  C2  NGI     0      -1.107   6.173 -11.855  0.00  0.00    +0.000 C 
ENDBRANCH  18  23
ENDBRANCH  14  20
BRANCH  16  24
ATOM     24  O3  NGI     0      -1.057   0.516  -8.083  0.00  0.00    +0.000 OA
ATOM     25  HO3 NGI     0      -0.536  -0.228  -8.416  0.00  0.00    +0.000 HD
ENDBRANCH  16  24
BRANCH  17  26
ATOM     26  O4  NGI     0       0.441   2.570  -8.229  0.00  0.00    +0.000 OA
ATOM     27  HO4 NGI     0       1.262   2.194  -8.575  0.00  0.00    +0.000 HD
ENDBRANCH  17  26
ENDBRANCH   1  15
BRANCH   8  28
ATOM     28  N4  NGI     0      -7.295  -0.250 -12.288  0.00  0.00    +0.000 NA
ATOM     29  HN4 NGI     0      -7.548  -0.390 -13.214  0.00  0.00    +0.000 HD
ATOM     30 HN4A NGI     0      -7.690  -0.796 -11.591  0.00  0.00    +0.000 HD
ENDBRANCH   8  28
BRANCH   4  31
ATOM     31  C12 NGI     0      -6.143   4.004 -14.397  0.00  0.00    +0.000 C 
BRANCH  31  32
ATOM     32  C13 NGI     0      -5.325   4.471 -15.603  0.00  0.00    +0.000 C 
BRANCH  32  33
ATOM     33  C14 NGI     0      -6.101   5.515 -16.363  0.00  0.00    +0.000 A 
ATOM     34  C15 NGI     0      -7.475   5.409 -16.475  0.00  0.00    +0.000 A 
ATOM     35  C16 NGI     0      -8.187   6.366 -17.173  0.00  0.00    +0.000 A 
ATOM     36  C17 NGI     0      -7.525   7.429 -17.760  0.00  0.00    +0.000 A 
ATOM     37  C21 NGI     0      -6.152   7.534 -17.648  0.00  0.00    +0.000 A 
ATOM     38  C22 NGI     0      -5.440   6.581 -16.945  0.00  0.00    +0.000 A 
BRANCH  36  39
ATOM     39  C18 NGI     0      -8.302   8.472 -18.521  0.00  0.00    +0.000 C 
BRANCH  39  40
ATOM     40  C19 NGI     0      -8.948   7.832 -19.750  0.00  0.00    +0.000 C 
BRANCH  40  42
ATOM     41  O6  NGI     0      -7.056   7.991 -21.146  0.00  0.00    +0.000 OA
ATOM     42  C20 NGI     0      -7.876   7.261 -20.641  0.00  0.00    +0.000 C 
BRANCH  42  43
ATOM     43  O5  NGI     0      -7.830   5.939 -20.873  0.00  0.00    +0.000 OA
ATOM     44  HO5 NGI     0      -8.656   5.512 -21.139  0.00  0.00    +0.000 HD
ENDBRANCH  42  43
ENDBRANCH  40  42
ENDBRANCH  39  40
ENDBRANCH  36  39
ENDBRANCH  32  33
ENDBRANCH  31  32
ENDBRANCH   4  31
TORSDOF 13
