REMARK VINA RESULT:      -6.0      2.615      3.817
REMARK  Name = NEC.pdb
REMARK  7 active torsions:
REMARK  status: ('A' for Active; 'I' for Inactive)
REMARK    1  A    between atoms: C5'_1  and  C4'_6
REMARK    2  A    between atoms: N5'_3  and  C51_4
REMARK    3  A    between atoms: C51_4  and  C52_5
REMARK    4  A    between atoms: C3'_8  and  O3'_9
REMARK    5  A    between atoms: C2'_10  and  O2'_11
REMARK    6  A    between atoms: C1'_12  and  N9_13
REMARK    7  A    between atoms: C6_17  and  N6_18
REMARK                            x       y       z     vdW  Elec       q    Type
REMARK                         _______ _______ _______ _____ _____    ______ ____
ROOT
ATOM      1  C4' NEC     0      -1.975   1.322  -8.546  0.00  0.00    +0.000 C 
ATOM      2  O4' NEC     0      -1.739   1.790  -9.890  0.00  0.00    +0.000 OA
ATOM      3  C3' NEC     0      -2.125   2.629  -7.726  0.00  0.00    +0.000 C 
ATOM      4  C2' NEC     0      -1.085   3.556  -8.405  0.00  0.00    +0.000 C 
ATOM      5  C1' NEC     0      -0.864   2.925  -9.792  0.00  0.00    +0.000 C 
ENDROOT
BRANCH   5   6
ATOM      6  N9  NEC     0      -1.186   3.894 -10.841  0.00  0.00    +0.000 N 
ATOM      7  C8  NEC     0      -0.405   4.937 -11.242  0.00  0.00    +0.000 A 
ATOM      8  N7  NEC     0      -0.998   5.596 -12.196  0.00  0.00    +0.000 NA
ATOM      9  C5  NEC     0      -2.194   5.018 -12.466  0.00  0.00    +0.000 A 
ATOM     10  C6  NEC     0      -3.237   5.284 -13.369  0.00  0.00    +0.000 C 
ATOM     11  N1  NEC     0      -4.298   4.485 -13.363  0.00  0.00    +0.000 NA
ATOM     12  C2  NEC     0      -4.380   3.464 -12.530  0.00  0.00    +0.000 C 
ATOM     13  N3  NEC     0      -3.428   3.178 -11.667  0.00  0.00    +0.000 N 
ATOM     14  C4  NEC     0      -2.325   3.918 -11.605  0.00  0.00    +0.000 A 
ATOM     15  H   NEC     0      -3.533   2.409 -11.062  0.00  0.00    +0.000 HD
BRANCH  10  16
ATOM     16  N6  NEC     0      -3.160   6.351 -14.247  0.00  0.00    +0.000 NA
ATOM     17 HN61 NEC     0      -2.411   6.966 -14.198  0.00  0.00    +0.000 HD
ATOM     18 HN62 NEC     0      -3.854   6.483 -14.911  0.00  0.00    +0.000 HD
ENDBRANCH  10  16
ENDBRANCH   5   6
BRANCH   1  19
ATOM     19  C5' NEC     0      -3.241   0.508  -8.481  0.00  0.00    +0.000 C 
ATOM     20  O5' NEC     0      -3.432  -0.244  -7.549  0.00  0.00    +0.000 OA
ATOM     21  N5' NEC     0      -4.163   0.617  -9.459  0.00  0.00    +0.000 N 
ATOM     22  HN5 NEC     0      -4.010   1.218 -10.203  0.00  0.00    +0.000 HD
BRANCH  21  23
ATOM     23  C51 NEC     0      -5.394  -0.174  -9.395  0.00  0.00    +0.000 C 
ATOM     24  C52 NEC     0      -6.210   0.050 -10.670  0.00  0.00    +0.000 C 
ENDBRANCH  21  23
ENDBRANCH   1  19
BRANCH   3  25
ATOM     25  O3' NEC     0      -1.798   2.415  -6.352  0.00  0.00    +0.000 OA
ATOM     26 HO3' NEC     0      -2.631   2.250  -5.888  0.00  0.00    +0.000 HD
ENDBRANCH   3  25
BRANCH   4  27
ATOM     27  O2' NEC     0       0.135   3.569  -7.660  0.00  0.00    +0.000 OA
ATOM     28 HO2' NEC     0       0.776   3.052  -8.167  0.00  0.00    +0.000 HD
ENDBRANCH   4  27
TORSDOF 6
