REMARK VINA RESULT:      -6.1      5.160      7.741
REMARK  Name = ADN.pdb
REMARK  6 active torsions:
REMARK  status: ('A' for Active; 'I' for Inactive)
REMARK    1  A    between atoms: O5'_1  and  C5'_2
REMARK    2  A    between atoms: C5'_2  and  C4'_3
REMARK    3  A    between atoms: C3'_5  and  O3'_6
REMARK    4  A    between atoms: C2'_7  and  O2'_8
REMARK    5  A    between atoms: C1'_9  and  N9_10
REMARK    6  A    between atoms: C6_14  and  N6_15
REMARK                            x       y       z     vdW  Elec       q    Type
REMARK                         _______ _______ _______ _____ _____    ______ ____
ROOT
ATOM      1  N9  ADN     0      -2.916   4.931 -12.725  0.00  0.00    +0.000 N 
ATOM      2  C8  ADN     0      -1.655   5.441 -12.639  0.00  0.00    +0.000 A 
ATOM      3  N7  ADN     0      -0.973   4.793 -11.740  0.00  0.00    +0.000 NA
ATOM      4  C5  ADN     0      -1.753   3.831 -11.190  0.00  0.00    +0.000 A 
ATOM      5  C6  ADN     0      -1.561   2.845 -10.206  0.00  0.00    +0.000 C 
ATOM      6  N1  ADN     0      -2.574   2.040  -9.911  0.00  0.00    +0.000 NA
ATOM      7  C2  ADN     0      -3.737   2.150 -10.526  0.00  0.00    +0.000 C 
ATOM      8  N3  ADN     0      -3.961   3.053 -11.458  0.00  0.00    +0.000 N 
ATOM      9  C4  ADN     0      -3.006   3.904 -11.819  0.00  0.00    +0.000 A 
ATOM     10  H   ADN     0      -4.844   3.098 -11.891  0.00  0.00    +0.000 HD
ENDROOT
BRANCH   1  15
ATOM     11  C4' ADN     0      -4.982   5.031 -15.653  0.00  0.00    +0.000 C 
ATOM     12  O4' ADN     0      -4.337   4.352 -14.554  0.00  0.00    +0.000 OA
ATOM     13  C3' ADN     0      -4.146   6.310 -15.870  0.00  0.00    +0.000 C 
ATOM     14  C2' ADN     0      -3.471   6.556 -14.500  0.00  0.00    +0.000 C 
ATOM     15  C1' ADN     0      -3.978   5.392 -13.620  0.00  0.00    +0.000 C 
BRANCH  13  16
ATOM     16  O3' ADN     0      -4.992   7.409 -16.216  0.00  0.00    +0.000 OA
ATOM     17 HO3' ADN     0      -4.842   8.096 -15.553  0.00  0.00    +0.000 HD
ENDBRANCH  13  16
BRANCH  14  18
ATOM     18  O2' ADN     0      -3.878   7.814 -13.960  0.00  0.00    +0.000 OA
ATOM     19 HO2' ADN     0      -4.767   7.991 -14.298  0.00  0.00    +0.000 HD
ENDBRANCH  14  18
BRANCH  11  20
ATOM     20  C5' ADN     0      -4.957   4.156 -16.908  0.00  0.00    +0.000 C 
BRANCH  20  21
ATOM     21  O5' ADN     0      -3.748   3.396 -16.935  0.00  0.00    +0.000 OA
ATOM     22 HO5' ADN     0      -3.152   3.796 -16.286  0.00  0.00    +0.000 HD
ENDBRANCH  20  21
ENDBRANCH  11  20
ENDBRANCH   1  15
BRANCH   5  23
ATOM     23  N6  ADN     0      -0.346   2.722  -9.556  0.00  0.00    +0.000 NA
ATOM     24 HN61 ADN     0      -0.207   3.159  -8.701  0.00  0.00    +0.000 HD
ATOM     25 HN62 ADN     0       0.366   2.196  -9.952  0.00  0.00    +0.000 HD
ENDBRANCH   5  23
TORSDOF 6
