REMARK VINA RESULT:      -6.7      5.260      8.934
REMARK  Name = NEC.pdb
REMARK  7 active torsions:
REMARK  status: ('A' for Active; 'I' for Inactive)
REMARK    1  A    between atoms: C5'_1  and  C4'_6
REMARK    2  A    between atoms: N5'_3  and  C51_4
REMARK    3  A    between atoms: C51_4  and  C52_5
REMARK    4  A    between atoms: C3'_8  and  O3'_9
REMARK    5  A    between atoms: C2'_10  and  O2'_11
REMARK    6  A    between atoms: C1'_12  and  N9_13
REMARK    7  A    between atoms: C6_17  and  N6_18
REMARK                            x       y       z     vdW  Elec       q    Type
REMARK                         _______ _______ _______ _____ _____    ______ ____
ROOT
ATOM      1  C4' NEC     0      -5.475   5.508 -15.268  0.00  0.00    +0.000 C 
ATOM      2  O4' NEC     0      -5.163   5.407 -13.862  0.00  0.00    +0.000 OA
ATOM      3  C3' NEC     0      -4.697   4.326 -15.900  0.00  0.00    +0.000 C 
ATOM      4  C2' NEC     0      -3.397   4.307 -15.057  0.00  0.00    +0.000 C 
ATOM      5  C1' NEC     0      -3.773   5.057 -13.765  0.00  0.00    +0.000 C 
ENDROOT
BRANCH   5   6
ATOM      6  N9  NEC     0      -3.557   4.191 -12.604  0.00  0.00    +0.000 N 
ATOM      7  C8  NEC     0      -2.493   4.234 -11.754  0.00  0.00    +0.000 A 
ATOM      8  N7  NEC     0      -2.622   3.323 -10.833  0.00  0.00    +0.000 NA
ATOM      9  C5  NEC     0      -3.776   2.640 -11.033  0.00  0.00    +0.000 A 
ATOM     10  C6  NEC     0      -4.422   1.579 -10.377  0.00  0.00    +0.000 C 
ATOM     11  N1  NEC     0      -5.580   1.147 -10.862  0.00  0.00    +0.000 NA
ATOM     12  C2  NEC     0      -6.118   1.694 -11.935  0.00  0.00    +0.000 C 
ATOM     13  N3  NEC     0      -5.549   2.690 -12.582  0.00  0.00    +0.000 N 
ATOM     14  C4  NEC     0      -4.391   3.193 -12.167  0.00  0.00    +0.000 A 
ATOM     15  H   NEC     0      -5.985   3.065 -13.381  0.00  0.00    +0.000 HD
BRANCH  10  16
ATOM     16  N6  NEC     0      -3.866   0.999  -9.250  0.00  0.00    +0.000 NA
ATOM     17 HN61 NEC     0      -4.110   1.321  -8.368  0.00  0.00    +0.000 HD
ATOM     18 HN62 NEC     0      -3.233   0.270  -9.342  0.00  0.00    +0.000 HD
ENDBRANCH  10  16
ENDBRANCH   5   6
BRANCH   1  19
ATOM     19  C5' NEC     0      -6.956   5.351 -15.496  0.00  0.00    +0.000 C 
ATOM     20  O5' NEC     0      -7.588   4.550 -14.840  0.00  0.00    +0.000 OA
ATOM     21  N5' NEC     0      -7.578   6.101 -16.427  0.00  0.00    +0.000 N 
ATOM     22  HN5 NEC     0      -7.072   6.742 -16.950  0.00  0.00    +0.000 HD
BRANCH  21  23
ATOM     23  C51 NEC     0      -9.018   5.949 -16.646  0.00  0.00    +0.000 C 
ATOM     24  C52 NEC     0      -9.673   7.330 -16.705  0.00  0.00    +0.000 C 
ENDBRANCH  21  23
ENDBRANCH   1  19
BRANCH   3  25
ATOM     25  O3' NEC     0      -4.409   4.577 -17.277  0.00  0.00    +0.000 OA
ATOM     26 HO3' NEC     0      -3.926   5.415 -17.314  0.00  0.00    +0.000 HD
ENDBRANCH   3  25
BRANCH   4  27
ATOM     27  O2' NEC     0      -2.346   4.991 -15.744  0.00  0.00    +0.000 OA
ATOM     28 HO2' NEC     0      -2.005   5.661 -15.135  0.00  0.00    +0.000 HD
ENDBRANCH   4  27
TORSDOF 6
