REMARK VINA RESULT:      -6.5      2.844      4.935
REMARK  Name = NEC.pdb
REMARK  7 active torsions:
REMARK  status: ('A' for Active; 'I' for Inactive)
REMARK    1  A    between atoms: C5'_1  and  C4'_6
REMARK    2  A    between atoms: N5'_3  and  C51_4
REMARK    3  A    between atoms: C51_4  and  C52_5
REMARK    4  A    between atoms: C3'_8  and  O3'_9
REMARK    5  A    between atoms: C2'_10  and  O2'_11
REMARK    6  A    between atoms: C1'_12  and  N9_13
REMARK    7  A    between atoms: C6_17  and  N6_18
REMARK                            x       y       z     vdW  Elec       q    Type
REMARK                         _______ _______ _______ _____ _____    ______ ____
ROOT
ATOM      1  C4' NEC     0      -4.465   1.369  -9.435  0.00  0.00    +0.000 C 
ATOM      2  O4' NEC     0      -4.250   2.599 -10.159  0.00  0.00    +0.000 OA
ATOM      3  C3' NEC     0      -4.973   0.389 -10.523  0.00  0.00    +0.000 C 
ATOM      4  C2' NEC     0      -5.844   1.315 -11.409  0.00  0.00    +0.000 C 
ATOM      5  C1' NEC     0      -5.335   2.734 -11.090  0.00  0.00    +0.000 C 
ENDROOT
BRANCH   5   6
ATOM      6  N9  NEC     0      -4.864   3.384 -12.314  0.00  0.00    +0.000 N 
ATOM      7  C8  NEC     0      -5.528   3.442 -13.502  0.00  0.00    +0.000 A 
ATOM      8  N7  NEC     0      -4.820   4.097 -14.377  0.00  0.00    +0.000 NA
ATOM      9  C5  NEC     0      -3.659   4.499 -13.805  0.00  0.00    +0.000 A 
ATOM     10  C6  NEC     0      -2.538   5.221 -14.249  0.00  0.00    +0.000 C 
ATOM     11  N1  NEC     0      -1.548   5.442 -13.392  0.00  0.00    +0.000 NA
ATOM     12  C2  NEC     0      -1.606   4.996 -12.151  0.00  0.00    +0.000 C 
ATOM     13  N3  NEC     0      -2.636   4.316 -11.692  0.00  0.00    +0.000 N 
ATOM     14  C4  NEC     0      -3.677   4.052 -12.475  0.00  0.00    +0.000 A 
ATOM     15  H   NEC     0      -2.635   4.000 -10.759  0.00  0.00    +0.000 HD
BRANCH  10  16
ATOM     16  N6  NEC     0      -2.468   5.693 -15.548  0.00  0.00    +0.000 NA
ATOM     17 HN61 NEC     0      -1.668   5.543 -16.076  0.00  0.00    +0.000 HD
ATOM     18 HN62 NEC     0      -3.219   6.171 -15.931  0.00  0.00    +0.000 HD
ENDBRANCH  10  16
ENDBRANCH   5   6
BRANCH   1  19
ATOM     19  C5' NEC     0      -3.175   0.872  -8.836  0.00  0.00    +0.000 C 
ATOM     20  O5' NEC     0      -2.130   1.430  -9.099  0.00  0.00    +0.000 OA
ATOM     21  N5' NEC     0      -3.182  -0.190  -8.006  0.00  0.00    +0.000 N 
ATOM     22  HN5 NEC     0      -4.016  -0.634  -7.795  0.00  0.00    +0.000 HD
BRANCH  21  23
ATOM     23  C51 NEC     0      -1.927  -0.670  -7.423  0.00  0.00    +0.000 C 
ATOM     24  C52 NEC     0      -1.879  -0.297  -5.940  0.00  0.00    +0.000 C 
ENDBRANCH  21  23
ENDBRANCH   1  19
BRANCH   3  25
ATOM     25  O3' NEC     0      -5.760  -0.656  -9.949  0.00  0.00    +0.000 OA
ATOM     26 HO3' NEC     0      -6.566  -0.244  -9.606  0.00  0.00    +0.000 HD
ENDBRANCH   3  25
BRANCH   4  27
ATOM     27  O2' NEC     0      -7.225   1.188 -11.059  0.00  0.00    +0.000 OA
ATOM     28 HO2' NEC     0      -7.678   1.958 -11.430  0.00  0.00    +0.000 HD
ENDBRANCH   4  27
TORSDOF 6
