REMARK VINA RESULT:      -6.3      5.937      9.729
REMARK  Name = NEC.pdb
REMARK  7 active torsions:
REMARK  status: ('A' for Active; 'I' for Inactive)
REMARK    1  A    between atoms: C5'_1  and  C4'_6
REMARK    2  A    between atoms: N5'_3  and  C51_4
REMARK    3  A    between atoms: C51_4  and  C52_5
REMARK    4  A    between atoms: C3'_8  and  O3'_9
REMARK    5  A    between atoms: C2'_10  and  O2'_11
REMARK    6  A    between atoms: C1'_12  and  N9_13
REMARK    7  A    between atoms: C6_17  and  N6_18
REMARK                            x       y       z     vdW  Elec       q    Type
REMARK                         _______ _______ _______ _____ _____    ______ ____
ROOT
ATOM      1  C4' NEC     0      -4.552   6.243 -15.455  0.00  0.00    +0.000 C 
ATOM      2  O4' NEC     0      -3.338   5.736 -14.862  0.00  0.00    +0.000 OA
ATOM      3  C3' NEC     0      -5.571   6.204 -14.289  0.00  0.00    +0.000 C 
ATOM      4  C2' NEC     0      -5.165   4.906 -13.548  0.00  0.00    +0.000 C 
ATOM      5  C1' NEC     0      -3.714   4.651 -13.999  0.00  0.00    +0.000 C 
ENDROOT
BRANCH   5   6
ATOM      6  N9  NEC     0      -2.827   4.610 -12.835  0.00  0.00    +0.000 N 
ATOM      7  C8  NEC     0      -1.736   5.399 -12.624  0.00  0.00    +0.000 A 
ATOM      8  N7  NEC     0      -1.180   5.095 -11.487  0.00  0.00    +0.000 NA
ATOM      9  C5  NEC     0      -1.878   4.094 -10.897  0.00  0.00    +0.000 A 
ATOM     10  C6  NEC     0      -1.752   3.377  -9.695  0.00  0.00    +0.000 C 
ATOM     11  N1  NEC     0      -2.645   2.432  -9.426  0.00  0.00    +0.000 NA
ATOM     12  C2  NEC     0      -3.630   2.164 -10.263  0.00  0.00    +0.000 C 
ATOM     13  N3  NEC     0      -3.786   2.809 -11.400  0.00  0.00    +0.000 N 
ATOM     14  C4  NEC     0      -2.945   3.776 -11.752  0.00  0.00    +0.000 A 
ATOM     15  H   NEC     0      -4.533   2.572 -11.996  0.00  0.00    +0.000 HD
BRANCH  10  16
ATOM     16  N6  NEC     0      -0.724   3.652  -8.811  0.00  0.00    +0.000 NA
ATOM     17 HN61 NEC     0      -0.079   2.963  -8.588  0.00  0.00    +0.000 HD
ATOM     18 HN62 NEC     0      -0.648   4.534  -8.415  0.00  0.00    +0.000 HD
ENDBRANCH  10  16
ENDBRANCH   5   6
BRANCH   1  19
ATOM     19  C5' NEC     0      -4.356   7.656 -15.941  0.00  0.00    +0.000 C 
ATOM     20  O5' NEC     0      -3.931   8.503 -15.184  0.00  0.00    +0.000 OA
ATOM     21  N5' NEC     0      -4.651   7.978 -17.216  0.00  0.00    +0.000 N 
ATOM     22  HN5 NEC     0      -4.989   7.301 -17.820  0.00  0.00    +0.000 HD
BRANCH  21  23
ATOM     23  C51 NEC     0      -4.458   9.351 -17.688  0.00  0.00    +0.000 C 
ATOM     24  C52 NEC     0      -4.816   9.435 -19.172  0.00  0.00    +0.000 C 
ENDBRANCH  21  23
ENDBRANCH   1  19
BRANCH   3  25
ATOM     25  O3' NEC     0      -6.911   6.114 -14.778  0.00  0.00    +0.000 OA
ATOM     26 HO3' NEC     0      -7.408   5.586 -14.138  0.00  0.00    +0.000 HD
ENDBRANCH   3  25
BRANCH   4  27
ATOM     27  O2' NEC     0      -6.008   3.821 -13.941  0.00  0.00    +0.000 OA
ATOM     28 HO2' NEC     0      -6.487   3.538 -13.149  0.00  0.00    +0.000 HD
ENDBRANCH   4  27
TORSDOF 6
