REMARK VINA RESULT:      -9.1      3.235     12.444
REMARK  Name = NGI.pdb
REMARK  14 active torsions:
REMARK  status: ('A' for Active; 'I' for Inactive)
REMARK    1  A    between atoms: C1_1  and  C2_4
REMARK    2  A    between atoms: N1_2  and  C2_4
REMARK    3  A    between atoms: N2_5  and  C5_13
REMARK    4  A    between atoms: C3_7  and  C4_10
REMARK    5  A    between atoms: O3_9  and  C6_16
REMARK    6  A    between atoms: N4_11  and  C10_23
REMARK    7  A    between atoms: O4_12  and  C7_19
REMARK    8  A    between atoms: O5_15  and  C20_33
REMARK    9  A    between atoms: N6_17  and  C12_25
REMARK   10  A    between atoms: C12_25  and  C13_26
REMARK   11  A    between atoms: C13_26  and  C14_27
REMARK   12  A    between atoms: C17_30  and  C18_31
REMARK   13  A    between atoms: C18_31  and  C19_32
REMARK   14  A    between atoms: C19_32  and  C20_33
REMARK                            x       y       z     vdW  Elec       q    Type
REMARK                         _______ _______ _______ _____ _____    ______ ____
ROOT
ATOM      1  N2  NGI     0      -2.298   2.628  -8.700  0.00  0.00    +0.000 N 
ATOM      2  N3  NGI     0      -0.647   3.946  -9.250  0.00  0.00    +0.000 NA
ATOM      3  N5  NGI     0      -2.579   4.375 -12.347  0.00  0.00    +0.000 NA
ATOM      4  N6  NGI     0      -4.627   3.374 -12.854  0.00  0.00    +0.000 N 
ATOM      5  N7  NGI     0      -3.582   2.952 -10.813  0.00  0.00    +0.000 N 
ATOM      6  C8  NGI     0      -1.104   3.164  -8.316  0.00  0.00    +0.000 A 
ATOM      7  C9  NGI     0      -1.514   3.956 -10.293  0.00  0.00    +0.000 A 
ATOM      8  C10 NGI     0      -1.546   4.599 -11.544  0.00  0.00    +0.000 C 
ATOM      9  C11 NGI     0      -3.572   3.575 -11.980  0.00  0.00    +0.000 C 
ATOM     10  C23 NGI     0      -2.584   3.113  -9.951  0.00  0.00    +0.000 A 
ATOM     11  HN6 NGI     0      -5.361   2.793 -12.604  0.00  0.00    +0.000 HD
ATOM     12  H   NGI     0      -4.337   2.363 -10.582  0.00  0.00    +0.000 HD
ENDROOT
BRANCH   1  15
ATOM     13  O2  NGI     0      -2.340   1.098  -6.865  0.00  0.00    +0.000 OA
ATOM     14  C4  NGI     0      -3.052  -0.105  -6.504  0.00  0.00    +0.000 C 
ATOM     15  C5  NGI     0      -3.122   1.700  -7.921  0.00  0.00    +0.000 C 
ATOM     16  C6  NGI     0      -3.576   0.515  -8.801  0.00  0.00    +0.000 C 
ATOM     17  C7  NGI     0      -3.529  -0.700  -7.848  0.00  0.00    +0.000 C 
BRANCH  14  20
ATOM     18  N1  NGI     0      -2.593  -2.269  -5.397  0.00  0.00    +0.000 N 
ATOM     19  O1  NGI     0      -0.975  -0.765  -5.600  0.00  0.00    +0.000 OA
ATOM     20  C3  NGI     0      -2.131  -1.069  -5.801  0.00  0.00    +0.000 C 
ATOM     21  HN1 NGI     0      -3.518  -2.512  -5.558  0.00  0.00    +0.000 HD
BRANCH  18  23
ATOM     22  C1  NGI     0      -2.276  -3.555  -3.341  0.00  0.00    +0.000 C 
ATOM     23  C2  NGI     0      -1.697  -3.205  -4.713  0.00  0.00    +0.000 C 
ENDBRANCH  18  23
ENDBRANCH  14  20
BRANCH  16  24
ATOM     24  O3  NGI     0      -4.906   0.726  -9.278  0.00  0.00    +0.000 OA
ATOM     25  HO3 NGI     0      -5.451  -0.073  -9.291  0.00  0.00    +0.000 HD
ENDBRANCH  16  24
BRANCH  17  26
ATOM     26  O4  NGI     0      -4.829  -1.276  -7.707  0.00  0.00    +0.000 OA
ATOM     27  HO4 NGI     0      -5.134  -1.757  -8.489  0.00  0.00    +0.000 HD
ENDBRANCH  17  26
ENDBRANCH   1  15
BRANCH   8  28
ATOM     28  N4  NGI     0      -0.522   5.446 -11.927  0.00  0.00    +0.000 NA
ATOM     29  HN4 NGI     0      -0.630   6.407 -11.842  0.00  0.00    +0.000 HD
ATOM     30 HN4A NGI     0       0.303   5.082 -12.282  0.00  0.00    +0.000 HD
ENDBRANCH   8  28
BRANCH   4  31
ATOM     31  C12 NGI     0      -4.634   4.041 -14.159  0.00  0.00    +0.000 C 
BRANCH  31  32
ATOM     32  C13 NGI     0      -5.775   5.060 -14.205  0.00  0.00    +0.000 C 
BRANCH  32  33
ATOM     33  C14 NGI     0      -5.389   6.206 -15.104  0.00  0.00    +0.000 A 
ATOM     34  C15 NGI     0      -5.926   6.300 -16.374  0.00  0.00    +0.000 A 
ATOM     35  C16 NGI     0      -5.571   7.351 -17.199  0.00  0.00    +0.000 A 
ATOM     36  C17 NGI     0      -4.678   8.308 -16.753  0.00  0.00    +0.000 A 
ATOM     37  C21 NGI     0      -4.141   8.214 -15.484  0.00  0.00    +0.000 A 
ATOM     38  C22 NGI     0      -4.500   7.167 -14.657  0.00  0.00    +0.000 A 
BRANCH  36  39
ATOM     39  C18 NGI     0      -4.292   9.454 -17.653  0.00  0.00    +0.000 C 
BRANCH  39  40
ATOM     40  C19 NGI     0      -4.119   8.943 -19.084  0.00  0.00    +0.000 C 
BRANCH  40  42
ATOM     41  O6  NGI     0      -2.420   9.117 -20.709  0.00  0.00    +0.000 OA
ATOM     42  C20 NGI     0      -2.898   9.577 -19.699  0.00  0.00    +0.000 C 
BRANCH  42  43
ATOM     43  O5  NGI     0      -2.341  10.655 -19.124  0.00  0.00    +0.000 OA
ATOM     44  HO5 NGI     0      -2.870  11.464 -19.103  0.00  0.00    +0.000 HD
ENDBRANCH  42  43
ENDBRANCH  40  42
ENDBRANCH  39  40
ENDBRANCH  36  39
ENDBRANCH  32  33
ENDBRANCH  31  32
ENDBRANCH   4  31
TORSDOF 13
