REMARK VINA RESULT:      -6.8      3.284      4.928
REMARK  Name = NGI.pdb
REMARK  14 active torsions:
REMARK  status: ('A' for Active; 'I' for Inactive)
REMARK    1  A    between atoms: C1_1  and  C2_4
REMARK    2  A    between atoms: N1_2  and  C2_4
REMARK    3  A    between atoms: N2_5  and  C5_13
REMARK    4  A    between atoms: C3_7  and  C4_10
REMARK    5  A    between atoms: O3_9  and  C6_16
REMARK    6  A    between atoms: N4_11  and  C10_23
REMARK    7  A    between atoms: O4_12  and  C7_19
REMARK    8  A    between atoms: O5_15  and  C20_33
REMARK    9  A    between atoms: N6_17  and  C12_25
REMARK   10  A    between atoms: C12_25  and  C13_26
REMARK   11  A    between atoms: C13_26  and  C14_27
REMARK   12  A    between atoms: C17_30  and  C18_31
REMARK   13  A    between atoms: C18_31  and  C19_32
REMARK   14  A    between atoms: C19_32  and  C20_33
REMARK                            x       y       z     vdW  Elec       q    Type
REMARK                         _______ _______ _______ _____ _____    ______ ____
ROOT
ATOM      1  N2  NGI     0      -5.495   1.918 -12.510  0.00  0.00    +0.000 N 
ATOM      2  N3  NGI     0      -6.329   0.159 -11.521  0.00  0.00    +0.000 NA
ATOM      3  N5  NGI     0      -4.194   1.239  -8.731  0.00  0.00    +0.000 NA
ATOM      4  N6  NGI     0      -2.796   3.110  -8.697  0.00  0.00    +0.000 N 
ATOM      5  N7  NGI     0      -4.066   2.621 -10.590  0.00  0.00    +0.000 N 
ATOM      6  C8  NGI     0      -6.336   0.850 -12.623  0.00  0.00    +0.000 A 
ATOM      7  C9  NGI     0      -5.479   0.734 -10.635  0.00  0.00    +0.000 A 
ATOM      8  C10 NGI     0      -5.074   0.438  -9.320  0.00  0.00    +0.000 C 
ATOM      9  C11 NGI     0      -3.712   2.306  -9.356  0.00  0.00    +0.000 C 
ATOM     10  C23 NGI     0      -4.937   1.870 -11.258  0.00  0.00    +0.000 A 
ATOM     11  HN6 NGI     0      -2.434   3.893  -9.137  0.00  0.00    +0.000 HD
ATOM     12  H   NGI     0      -3.681   3.420 -11.019  0.00  0.00    +0.000 HD
ENDROOT
BRANCH   1  15
ATOM     13  O2  NGI     0      -3.975   3.591 -13.283  0.00  0.00    +0.000 OA
ATOM     14  C4  NGI     0      -4.050   4.838 -14.007  0.00  0.00    +0.000 C 
ATOM     15  C5  NGI     0      -5.233   2.927 -13.538  0.00  0.00    +0.000 C 
ATOM     16  C6  NGI     0      -6.292   4.049 -13.474  0.00  0.00    +0.000 C 
ATOM     17  C7  NGI     0      -5.496   5.335 -13.789  0.00  0.00    +0.000 C 
BRANCH  14  20
ATOM     18  N1  NGI     0      -2.171   5.443 -12.514  0.00  0.00    +0.000 N 
ATOM     19  O1  NGI     0      -3.076   6.981 -13.833  0.00  0.00    +0.000 OA
ATOM     20  C3  NGI     0      -3.064   5.831 -13.446  0.00  0.00    +0.000 C 
ATOM     21  HN1 NGI     0      -2.162   4.523 -12.205  0.00  0.00    +0.000 HD
BRANCH  18  23
ATOM     22  C1  NGI     0      -1.156   6.266 -10.448  0.00  0.00    +0.000 C 
ATOM     23  C2  NGI     0      -1.215   6.409 -11.970  0.00  0.00    +0.000 C 
ENDBRANCH  18  23
ENDBRANCH  14  20
BRANCH  16  24
ATOM     24  O3  NGI     0      -7.308   3.836 -14.456  0.00  0.00    +0.000 OA
ATOM     25  HO3 NGI     0      -7.090   4.190 -15.330  0.00  0.00    +0.000 HD
ENDBRANCH  16  24
BRANCH  17  26
ATOM     26  O4  NGI     0      -5.996   5.956 -14.976  0.00  0.00    +0.000 OA
ATOM     27  HO4 NGI     0      -6.951   6.110 -14.967  0.00  0.00    +0.000 HD
ENDBRANCH  17  26
ENDBRANCH   1  15
BRANCH   8  28
ATOM     28  N4  NGI     0      -5.583  -0.663  -8.657  0.00  0.00    +0.000 NA
ATOM     29  HN4 NGI     0      -5.588  -1.531  -9.091  0.00  0.00    +0.000 HD
ATOM     30 HN4A NGI     0      -5.936  -0.569  -7.759  0.00  0.00    +0.000 HD
ENDBRANCH   8  28
BRANCH   4  31
ATOM     31  C12 NGI     0      -2.376   2.776  -7.333  0.00  0.00    +0.000 C 
BRANCH  31  32
ATOM     32  C13 NGI     0      -1.212   1.785  -7.386  0.00  0.00    +0.000 C 
BRANCH  32  33
ATOM     33  C14 NGI     0      -1.648   0.465  -6.804  0.00  0.00    +0.000 A 
ATOM     34  C15 NGI     0      -2.837   0.378  -6.104  0.00  0.00    +0.000 A 
ATOM     35  C16 NGI     0      -3.237  -0.833  -5.569  0.00  0.00    +0.000 A 
ATOM     36  C17 NGI     0      -2.447  -1.956  -5.734  0.00  0.00    +0.000 A 
ATOM     37  C21 NGI     0      -1.259  -1.868  -6.434  0.00  0.00    +0.000 A 
ATOM     38  C22 NGI     0      -0.862  -0.660  -6.974  0.00  0.00    +0.000 A 
BRANCH  36  39
ATOM     39  C18 NGI     0      -2.884  -3.275  -5.151  0.00  0.00    +0.000 C 
BRANCH  39  40
ATOM     40  C19 NGI     0      -2.488  -3.337  -3.676  0.00  0.00    +0.000 C 
BRANCH  40  42
ATOM     41  O6  NGI     0      -0.745  -4.326  -2.435  0.00  0.00    +0.000 OA
ATOM     42  C20 NGI     0      -1.241  -4.171  -3.525  0.00  0.00    +0.000 C 
BRANCH  42  43
ATOM     43  O5  NGI     0      -0.683  -4.743  -4.604  0.00  0.00    +0.000 OA
ATOM     44  HO5 NGI     0      -1.272  -4.956  -5.342  0.00  0.00    +0.000 HD
ENDBRANCH  42  43
ENDBRANCH  40  42
ENDBRANCH  39  40
ENDBRANCH  36  39
ENDBRANCH  32  33
ENDBRANCH  31  32
ENDBRANCH   4  31
TORSDOF 13
