REMARK VINA RESULT:      -5.9      6.353      8.831
REMARK  Name = NEC.pdb
REMARK  7 active torsions:
REMARK  status: ('A' for Active; 'I' for Inactive)
REMARK    1  A    between atoms: C5'_1  and  C4'_6
REMARK    2  A    between atoms: N5'_3  and  C51_4
REMARK    3  A    between atoms: C51_4  and  C52_5
REMARK    4  A    between atoms: C3'_8  and  O3'_9
REMARK    5  A    between atoms: C2'_10  and  O2'_11
REMARK    6  A    between atoms: C1'_12  and  N9_13
REMARK    7  A    between atoms: C6_17  and  N6_18
REMARK                            x       y       z     vdW  Elec       q    Type
REMARK                         _______ _______ _______ _____ _____    ______ ____
ROOT
ATOM      1  C4' NEC     0      -4.133   4.290 -14.116  0.00  0.00    +0.000 C 
ATOM      2  O4' NEC     0      -5.045   4.036 -15.205  0.00  0.00    +0.000 OA
ATOM      3  C3' NEC     0      -4.352   5.792 -13.801  0.00  0.00    +0.000 C 
ATOM      4  C2' NEC     0      -4.577   6.389 -15.213  0.00  0.00    +0.000 C 
ATOM      5  C1' NEC     0      -4.993   5.180 -16.073  0.00  0.00    +0.000 C 
ENDROOT
BRANCH   5   6
ATOM      6  N9  NEC     0      -6.310   5.418 -16.666  0.00  0.00    +0.000 N 
ATOM      7  C8  NEC     0      -7.249   6.296 -16.217  0.00  0.00    +0.000 A 
ATOM      8  N7  NEC     0      -8.303   6.250 -16.981  0.00  0.00    +0.000 NA
ATOM      9  C5  NEC     0      -8.105   5.341 -17.966  0.00  0.00    +0.000 A 
ATOM     10  C6  NEC     0      -8.870   4.878 -19.050  0.00  0.00    +0.000 C 
ATOM     11  N1  NEC     0      -8.346   3.950 -19.843  0.00  0.00    +0.000 NA
ATOM     12  C2  NEC     0      -7.138   3.467 -19.624  0.00  0.00    +0.000 C 
ATOM     13  N3  NEC     0      -6.386   3.870 -18.621  0.00  0.00    +0.000 N 
ATOM     14  C4  NEC     0      -6.823   4.801 -17.779  0.00  0.00    +0.000 A 
ATOM     15  H   NEC     0      -5.492   3.479 -18.494  0.00  0.00    +0.000 HD
BRANCH  10  16
ATOM     16  N6  NEC     0     -10.138   5.379 -19.288  0.00  0.00    +0.000 NA
ATOM     17 HN61 NEC     0     -10.745   5.534 -18.549  0.00  0.00    +0.000 HD
ATOM     18 HN62 NEC     0     -10.418   5.577 -20.196  0.00  0.00    +0.000 HD
ENDBRANCH  10  16
ENDBRANCH   5   6
BRANCH   1  19
ATOM     19  C5' NEC     0      -4.484   3.441 -12.921  0.00  0.00    +0.000 C 
ATOM     20  O5' NEC     0      -5.539   2.844 -12.891  0.00  0.00    +0.000 OA
ATOM     21  N5' NEC     0      -3.624   3.345 -11.888  0.00  0.00    +0.000 N 
ATOM     22  HN5 NEC     0      -2.782   3.823 -11.912  0.00  0.00    +0.000 HD
BRANCH  21  23
ATOM     23  C51 NEC     0      -3.965   2.518 -10.728  0.00  0.00    +0.000 C 
ATOM     24  C52 NEC     0      -2.696   2.210  -9.931  0.00  0.00    +0.000 C 
ENDBRANCH  21  23
ENDBRANCH   1  19
BRANCH   3  25
ATOM     25  O3' NEC     0      -3.195   6.362 -13.184  0.00  0.00    +0.000 OA
ATOM     26 HO3' NEC     0      -3.121   7.269 -13.512  0.00  0.00    +0.000 HD
ENDBRANCH   3  25
BRANCH   4  27
ATOM     27  O2' NEC     0      -3.367   6.965 -15.711  0.00  0.00    +0.000 OA
ATOM     28 HO2' NEC     0      -3.585   7.861 -16.004  0.00  0.00    +0.000 HD
ENDBRANCH   4  27
TORSDOF 6
