REMARK VINA RESULT:      -6.2      3.221     11.657
REMARK  Name = NGI.pdb
REMARK  14 active torsions:
REMARK  status: ('A' for Active; 'I' for Inactive)
REMARK    1  A    between atoms: C1_1  and  C2_4
REMARK    2  A    between atoms: N1_2  and  C2_4
REMARK    3  A    between atoms: N2_5  and  C5_13
REMARK    4  A    between atoms: C3_7  and  C4_10
REMARK    5  A    between atoms: O3_9  and  C6_16
REMARK    6  A    between atoms: N4_11  and  C10_23
REMARK    7  A    between atoms: O4_12  and  C7_19
REMARK    8  A    between atoms: O5_15  and  C20_33
REMARK    9  A    between atoms: N6_17  and  C12_25
REMARK   10  A    between atoms: C12_25  and  C13_26
REMARK   11  A    between atoms: C13_26  and  C14_27
REMARK   12  A    between atoms: C17_30  and  C18_31
REMARK   13  A    between atoms: C18_31  and  C19_32
REMARK   14  A    between atoms: C19_32  and  C20_33
REMARK                            x       y       z     vdW  Elec       q    Type
REMARK                         _______ _______ _______ _____ _____    ______ ____
ROOT
ATOM      1  N2  NGI     0      -0.517   2.555  -9.436  0.00  0.00    +0.000 N 
ATOM      2  N3  NGI     0       0.544   4.084 -10.576  0.00  0.00    +0.000 NA
ATOM      3  N5  NGI     0      -2.696   4.470 -12.267  0.00  0.00    +0.000 NA
ATOM      4  N6  NGI     0      -4.648   3.271 -11.815  0.00  0.00    +0.000 N 
ATOM      5  N7  NGI     0      -2.700   2.852 -10.604  0.00  0.00    +0.000 N 
ATOM      6  C8  NGI     0       0.669   3.201  -9.629  0.00  0.00    +0.000 A 
ATOM      7  C9  NGI     0      -0.724   4.056 -11.055  0.00  0.00    +0.000 A 
ATOM      8  C10 NGI     0      -1.418   4.764 -12.052  0.00  0.00    +0.000 C 
ATOM      9  C11 NGI     0      -3.315   3.540 -11.551  0.00  0.00    +0.000 C 
ATOM     10  C23 NGI     0      -1.420   3.077 -10.327  0.00  0.00    +0.000 A 
ATOM     11  HN6 NGI     0      -5.117   2.596 -11.302  0.00  0.00    +0.000 HD
ATOM     12  H   NGI     0      -3.196   2.168 -10.098  0.00  0.00    +0.000 HD
ENDROOT
BRANCH   1  15
ATOM     13  O2  NGI     0      -1.877   0.666  -8.896  0.00  0.00    +0.000 OA
ATOM     14  C4  NGI     0      -2.358   0.013  -7.702  0.00  0.00    +0.000 C 
ATOM     15  C5  NGI     0      -0.776   1.494  -8.460  0.00  0.00    +0.000 C 
ATOM     16  C6  NGI     0      -1.244   2.100  -7.118  0.00  0.00    +0.000 C 
ATOM     17  C7  NGI     0      -2.309   1.103  -6.608  0.00  0.00    +0.000 C 
BRANCH  14  20
ATOM     18  N1  NGI     0      -4.452  -0.127  -9.013  0.00  0.00    +0.000 N 
ATOM     19  O1  NGI     0      -4.301  -1.161  -7.055  0.00  0.00    +0.000 OA
ATOM     20  C3  NGI     0      -3.773  -0.468  -7.900  0.00  0.00    +0.000 C 
ATOM     21  HN1 NGI     0      -4.030   0.428  -9.687  0.00  0.00    +0.000 HD
BRANCH  18  23
ATOM     22  C1  NGI     0      -6.461   0.153 -10.378  0.00  0.00    +0.000 C 
ATOM     23  C2  NGI     0      -5.827  -0.594  -9.203  0.00  0.00    +0.000 C 
ENDBRANCH  18  23
ENDBRANCH  14  20
BRANCH  16  24
ATOM     24  O3  NGI     0      -0.154   2.182  -6.198  0.00  0.00    +0.000 OA
ATOM     25  HO3 NGI     0      -0.153   2.986  -5.661  0.00  0.00    +0.000 HD
ENDBRANCH  16  24
BRANCH  17  26
ATOM     26  O4  NGI     0      -1.909   0.540  -5.357  0.00  0.00    +0.000 OA
ATOM     27  HO4 NGI     0      -1.706  -0.405  -5.398  0.00  0.00    +0.000 HD
ENDBRANCH  17  26
ENDBRANCH   1  15
BRANCH   8  28
ATOM     28  N4  NGI     0      -0.784   5.744 -12.793  0.00  0.00    +0.000 NA
ATOM     29  HN4 NGI     0      -1.146   6.014 -13.651  0.00  0.00    +0.000 HD
ATOM     30 HN4A NGI     0       0.023   6.163 -12.455  0.00  0.00    +0.000 HD
ENDBRANCH   8  28
BRANCH   4  31
ATOM     31  C12 NGI     0      -5.350   4.008 -12.869  0.00  0.00    +0.000 C 
BRANCH  31  32
ATOM     32  C13 NGI     0      -4.848   3.544 -14.238  0.00  0.00    +0.000 C 
BRANCH  32  33
ATOM     33  C14 NGI     0      -5.321   4.504 -15.299  0.00  0.00    +0.000 A 
ATOM     34  C15 NGI     0      -4.606   4.641 -16.474  0.00  0.00    +0.000 A 
ATOM     35  C16 NGI     0      -5.040   5.522 -17.447  0.00  0.00    +0.000 A 
ATOM     36  C17 NGI     0      -6.188   6.266 -17.244  0.00  0.00    +0.000 A 
ATOM     37  C21 NGI     0      -6.902   6.128 -16.069  0.00  0.00    +0.000 A 
ATOM     38  C22 NGI     0      -6.472   5.243 -15.098  0.00  0.00    +0.000 A 
BRANCH  36  39
ATOM     39  C18 NGI     0      -6.660   7.226 -18.306  0.00  0.00    +0.000 C 
BRANCH  39  40
ATOM     40  C19 NGI     0      -8.168   7.444 -18.163  0.00  0.00    +0.000 C 
BRANCH  40  42
ATOM     41  O6  NGI     0      -9.294   9.383 -18.886  0.00  0.00    +0.000 OA
ATOM     42  C20 NGI     0      -8.635   8.423 -19.209  0.00  0.00    +0.000 C 
BRANCH  42  43
ATOM     43  O5  NGI     0      -8.317   8.229 -20.498  0.00  0.00    +0.000 OA
ATOM     44  HO5 NGI     0      -9.002   8.423 -21.153  0.00  0.00    +0.000 HD
ENDBRANCH  42  43
ENDBRANCH  40  42
ENDBRANCH  39  40
ENDBRANCH  36  39
ENDBRANCH  32  33
ENDBRANCH  31  32
ENDBRANCH   4  31
TORSDOF 13
