REMARK VINA RESULT:      -6.7      5.462      9.356
REMARK  Name = NEC.pdb
REMARK  7 active torsions:
REMARK  status: ('A' for Active; 'I' for Inactive)
REMARK    1  A    between atoms: C5'_1  and  C4'_6
REMARK    2  A    between atoms: N5'_3  and  C51_4
REMARK    3  A    between atoms: C51_4  and  C52_5
REMARK    4  A    between atoms: C3'_8  and  O3'_9
REMARK    5  A    between atoms: C2'_10  and  O2'_11
REMARK    6  A    between atoms: C1'_12  and  N9_13
REMARK    7  A    between atoms: C6_17  and  N6_18
REMARK                            x       y       z     vdW  Elec       q    Type
REMARK                         _______ _______ _______ _____ _____    ______ ____
ROOT
ATOM      1  C4' NEC     0      -5.793   5.533 -15.437  0.00  0.00    +0.000 C 
ATOM      2  O4' NEC     0      -5.637   5.289 -14.023  0.00  0.00    +0.000 OA
ATOM      3  C3' NEC     0      -4.977   4.392 -16.096  0.00  0.00    +0.000 C 
ATOM      4  C2' NEC     0      -3.776   4.253 -15.127  0.00  0.00    +0.000 C 
ATOM      5  C1' NEC     0      -4.273   4.888 -13.814  0.00  0.00    +0.000 C 
ENDROOT
BRANCH   5   6
ATOM      6  N9  NEC     0      -4.201   3.911 -12.727  0.00  0.00    +0.000 N 
ATOM      7  C8  NEC     0      -5.174   3.024 -12.374  0.00  0.00    +0.000 A 
ATOM      8  N7  NEC     0      -4.776   2.305 -11.364  0.00  0.00    +0.000 NA
ATOM      9  C5  NEC     0      -3.526   2.684 -11.006  0.00  0.00    +0.000 A 
ATOM     10  C6  NEC     0      -2.615   2.277 -10.016  0.00  0.00    +0.000 C 
ATOM     11  N1  NEC     0      -1.437   2.886  -9.951  0.00  0.00    +0.000 NA
ATOM     12  C2  NEC     0      -1.121   3.854 -10.790  0.00  0.00    +0.000 C 
ATOM     13  N3  NEC     0      -1.942   4.269 -11.733  0.00  0.00    +0.000 N 
ATOM     14  C4  NEC     0      -3.140   3.714 -11.879  0.00  0.00    +0.000 A 
ATOM     15  H   NEC     0      -1.665   4.997 -12.335  0.00  0.00    +0.000 HD
BRANCH  10  16
ATOM     16  N6  NEC     0      -2.938   1.263  -9.132  0.00  0.00    +0.000 NA
ATOM     17 HN61 NEC     0      -2.236   0.794  -8.654  0.00  0.00    +0.000 HD
ATOM     18 HN62 NEC     0      -3.867   1.022  -8.988  0.00  0.00    +0.000 HD
ENDBRANCH  10  16
ENDBRANCH   5   6
BRANCH   1  19
ATOM     19  C5' NEC     0      -7.244   5.444 -15.833  0.00  0.00    +0.000 C 
ATOM     20  O5' NEC     0      -8.008   4.756 -15.188  0.00  0.00    +0.000 OA
ATOM     21  N5' NEC     0      -7.694   6.129 -16.903  0.00  0.00    +0.000 N 
ATOM     22  HN5 NEC     0      -7.084   6.679 -17.417  0.00  0.00    +0.000 HD
BRANCH  21  23
ATOM     23  C51 NEC     0      -9.105   6.044 -17.287  0.00  0.00    +0.000 C 
ATOM     24  C52 NEC     0      -9.856   7.259 -16.741  0.00  0.00    +0.000 C 
ENDBRANCH  21  23
ENDBRANCH   1  19
BRANCH   3  25
ATOM     25  O3' NEC     0      -4.537   4.763 -17.404  0.00  0.00    +0.000 OA
ATOM     26 HO3' NEC     0      -3.579   4.632 -17.424  0.00  0.00    +0.000 HD
ENDBRANCH   3  25
BRANCH   4  27
ATOM     27  O2' NEC     0      -2.643   4.965 -15.630  0.00  0.00    +0.000 OA
ATOM     28 HO2' NEC     0      -1.893   4.728 -15.067  0.00  0.00    +0.000 HD
ENDBRANCH   4  27
TORSDOF 6
