REMARK VINA RESULT:      -6.4      1.701      2.912
REMARK  Name = ADN.pdb
REMARK  6 active torsions:
REMARK  status: ('A' for Active; 'I' for Inactive)
REMARK    1  A    between atoms: O5'_1  and  C5'_2
REMARK    2  A    between atoms: C5'_2  and  C4'_3
REMARK    3  A    between atoms: C3'_5  and  O3'_6
REMARK    4  A    between atoms: C2'_7  and  O2'_8
REMARK    5  A    between atoms: C1'_9  and  N9_10
REMARK    6  A    between atoms: C6_14  and  N6_15
REMARK                            x       y       z     vdW  Elec       q    Type
REMARK                         _______ _______ _______ _____ _____    ______ ____
ROOT
ATOM      1  N9  ADN     0      -2.583   3.237  -9.897  0.00  0.00    +0.000 N 
ATOM      2  C8  ADN     0      -1.406   3.922  -9.976  0.00  0.00    +0.000 A 
ATOM      3  N7  ADN     0      -1.299   4.490 -11.142  0.00  0.00    +0.000 NA
ATOM      4  C5  ADN     0      -2.396   4.204 -11.885  0.00  0.00    +0.000 A 
ATOM      5  C6  ADN     0      -2.828   4.541 -13.180  0.00  0.00    +0.000 C 
ATOM      6  N1  ADN     0      -4.000   4.076 -13.597  0.00  0.00    +0.000 NA
ATOM      7  C2  ADN     0      -4.752   3.320 -12.818  0.00  0.00    +0.000 C 
ATOM      8  N3  ADN     0      -4.391   2.985 -11.596  0.00  0.00    +0.000 N 
ATOM      9  C4  ADN     0      -3.234   3.402 -11.094  0.00  0.00    +0.000 A 
ATOM     10  H   ADN     0      -4.985   2.419 -11.051  0.00  0.00    +0.000 HD
ENDROOT
BRANCH   1  15
ATOM     11  C4' ADN     0      -2.433   1.519  -6.755  0.00  0.00    +0.000 C 
ATOM     12  O4' ADN     0      -2.179   2.647  -7.620  0.00  0.00    +0.000 OA
ATOM     13  C3' ADN     0      -2.591   0.317  -7.712  0.00  0.00    +0.000 C 
ATOM     14  C2' ADN     0      -3.017   0.958  -9.054  0.00  0.00    +0.000 C 
ATOM     15  C1' ADN     0      -3.063   2.470  -8.748  0.00  0.00    +0.000 C 
BRANCH  13  16
ATOM     16  O3' ADN     0      -3.603  -0.573  -7.237  0.00  0.00    +0.000 OA
ATOM     17 HO3' ADN     0      -3.692  -1.272  -7.898  0.00  0.00    +0.000 HD
ENDBRANCH  13  16
BRANCH  14  18
ATOM     18  O2' ADN     0      -4.305   0.481  -9.449  0.00  0.00    +0.000 OA
ATOM     19 HO2' ADN     0      -4.216   0.148 -10.352  0.00  0.00    +0.000 HD
ENDBRANCH  14  18
BRANCH  11  20
ATOM     20  C5' ADN     0      -1.253   1.297  -5.807  0.00  0.00    +0.000 C 
BRANCH  20  21
ATOM     21  O5' ADN     0      -1.524   1.927  -4.553  0.00  0.00    +0.000 OA
ATOM     22 HO5' ADN     0      -1.135   2.812  -4.596  0.00  0.00    +0.000 HD
ENDBRANCH  20  21
ENDBRANCH  11  20
ENDBRANCH   1  15
BRANCH   5  23
ATOM     23  N6  ADN     0      -2.046   5.331 -14.003  0.00  0.00    +0.000 NA
ATOM     24 HN61 ADN     0      -1.091   5.399 -13.847  0.00  0.00    +0.000 HD
ATOM     25 HN62 ADN     0      -2.452   5.814 -14.740  0.00  0.00    +0.000 HD
ENDBRANCH   5  23
TORSDOF 6
