REMARK VINA RESULT:      -5.7      5.910      8.280
REMARK  Name = NEC.pdb
REMARK  7 active torsions:
REMARK  status: ('A' for Active; 'I' for Inactive)
REMARK    1  A    between atoms: C5'_1  and  C4'_6
REMARK    2  A    between atoms: N5'_3  and  C51_4
REMARK    3  A    between atoms: C51_4  and  C52_5
REMARK    4  A    between atoms: C3'_8  and  O3'_9
REMARK    5  A    between atoms: C2'_10  and  O2'_11
REMARK    6  A    between atoms: C1'_12  and  N9_13
REMARK    7  A    between atoms: C6_17  and  N6_18
REMARK                            x       y       z     vdW  Elec       q    Type
REMARK                         _______ _______ _______ _____ _____    ______ ____
ROOT
ATOM      1  C4' NEC     0      -4.387   3.587 -13.941  0.00  0.00    +0.000 C 
ATOM      2  O4' NEC     0      -5.179   3.980 -15.082  0.00  0.00    +0.000 OA
ATOM      3  C3' NEC     0      -3.621   4.881 -13.566  0.00  0.00    +0.000 C 
ATOM      4  C2' NEC     0      -3.323   5.494 -14.957  0.00  0.00    +0.000 C 
ATOM      5  C1' NEC     0      -4.355   4.833 -15.891  0.00  0.00    +0.000 C 
ENDROOT
BRANCH   5   6
ATOM      6  N9  NEC     0      -5.178   5.860 -16.533  0.00  0.00    +0.000 N 
ATOM      7  C8  NEC     0      -4.729   7.009 -17.110  0.00  0.00    +0.000 A 
ATOM      8  N7  NEC     0      -5.732   7.691 -17.583  0.00  0.00    +0.000 NA
ATOM      9  C5  NEC     0      -6.886   7.023 -17.340  0.00  0.00    +0.000 A 
ATOM     10  C6  NEC     0      -8.243   7.265 -17.612  0.00  0.00    +0.000 C 
ATOM     11  N1  NEC     0      -9.137   6.365 -17.218  0.00  0.00    +0.000 NA
ATOM     12  C2  NEC     0      -8.768   5.268 -16.585  0.00  0.00    +0.000 C 
ATOM     13  N3  NEC     0      -7.509   5.000 -16.308  0.00  0.00    +0.000 N 
ATOM     14  C4  NEC     0      -6.543   5.839 -16.669  0.00  0.00    +0.000 A 
ATOM     15  H   NEC     0      -7.281   4.170 -15.830  0.00  0.00    +0.000 HD
BRANCH  10  16
ATOM     16  N6  NEC     0      -8.639   8.412 -18.276  0.00  0.00    +0.000 NA
ATOM     17 HN61 NEC     0      -9.503   8.446 -18.715  0.00  0.00    +0.000 HD
ATOM     18 HN62 NEC     0      -8.052   9.185 -18.302  0.00  0.00    +0.000 HD
ENDBRANCH  10  16
ENDBRANCH   5   6
BRANCH   1  19
ATOM     19  C5' NEC     0      -5.274   3.148 -12.805  0.00  0.00    +0.000 C 
ATOM     20  O5' NEC     0      -5.841   3.976 -12.124  0.00  0.00    +0.000 OA
ATOM     21  N5' NEC     0      -5.439   1.835 -12.547  0.00  0.00    +0.000 N 
ATOM     22  HN5 NEC     0      -4.986   1.174 -13.092  0.00  0.00    +0.000 HD
BRANCH  21  23
ATOM     23  C51 NEC     0      -6.303   1.409 -11.443  0.00  0.00    +0.000 C 
ATOM     24  C52 NEC     0      -5.448   0.782 -10.340  0.00  0.00    +0.000 C 
ENDBRANCH  21  23
ENDBRANCH   1  19
BRANCH   3  25
ATOM     25  O3' NEC     0      -2.409   4.579 -12.871  0.00  0.00    +0.000 OA
ATOM     26 HO3' NEC     0      -1.681   4.809 -13.465  0.00  0.00    +0.000 HD
ENDBRANCH   3  25
BRANCH   4  27
ATOM     27  O2' NEC     0      -1.993   5.170 -15.372  0.00  0.00    +0.000 OA
ATOM     28 HO2' NEC     0      -1.456   5.962 -15.228  0.00  0.00    +0.000 HD
ENDBRANCH   4  27
TORSDOF 6
