REMARK VINA RESULT:      -6.8      4.303      6.362
REMARK  Name = NEC.pdb
REMARK  7 active torsions:
REMARK  status: ('A' for Active; 'I' for Inactive)
REMARK    1  A    between atoms: C5'_1  and  C4'_6
REMARK    2  A    between atoms: N5'_3  and  C51_4
REMARK    3  A    between atoms: C51_4  and  C52_5
REMARK    4  A    between atoms: C3'_8  and  O3'_9
REMARK    5  A    between atoms: C2'_10  and  O2'_11
REMARK    6  A    between atoms: C1'_12  and  N9_13
REMARK    7  A    between atoms: C6_17  and  N6_18
REMARK                            x       y       z     vdW  Elec       q    Type
REMARK                         _______ _______ _______ _____ _____    ______ ____
ROOT
ATOM      1  C4' NEC     0      -2.116   3.727 -11.307  0.00  0.00    +0.000 C 
ATOM      2  O4' NEC     0      -2.817   3.902 -12.556  0.00  0.00    +0.000 OA
ATOM      3  C3' NEC     0      -1.935   5.176 -10.786  0.00  0.00    +0.000 C 
ATOM      4  C2' NEC     0      -1.674   5.959 -12.097  0.00  0.00    +0.000 C 
ATOM      5  C1' NEC     0      -2.246   5.051 -13.202  0.00  0.00    +0.000 C 
ENDROOT
BRANCH   5   6
ATOM      6  N9  NEC     0      -3.279   5.766 -13.953  0.00  0.00    +0.000 N 
ATOM      7  C8  NEC     0      -3.788   6.994 -13.655  0.00  0.00    +0.000 A 
ATOM      8  N7  NEC     0      -4.690   7.327 -14.533  0.00  0.00    +0.000 NA
ATOM      9  C5  NEC     0      -4.816   6.336 -15.448  0.00  0.00    +0.000 A 
ATOM     10  C6  NEC     0      -5.608   6.142 -16.592  0.00  0.00    +0.000 C 
ATOM     11  N1  NEC     0      -5.466   5.014 -17.277  0.00  0.00    +0.000 NA
ATOM     12  C2  NEC     0      -4.603   4.089 -16.899  0.00  0.00    +0.000 C 
ATOM     13  N3  NEC     0      -3.841   4.227 -15.834  0.00  0.00    +0.000 N 
ATOM     14  C4  NEC     0      -3.909   5.326 -15.090  0.00  0.00    +0.000 A 
ATOM     15  H   NEC     0      -3.213   3.509 -15.588  0.00  0.00    +0.000 HD
BRANCH  10  16
ATOM     16  N6  NEC     0      -6.515   7.107 -16.996  0.00  0.00    +0.000 NA
ATOM     17 HN61 NEC     0      -6.652   7.901 -16.457  0.00  0.00    +0.000 HD
ATOM     18 HN62 NEC     0      -7.013   6.988 -17.820  0.00  0.00    +0.000 HD
ENDBRANCH  10  16
ENDBRANCH   5   6
BRANCH   1  19
ATOM     19  C5' NEC     0      -2.944   2.917 -10.342  0.00  0.00    +0.000 C 
ATOM     20  O5' NEC     0      -2.640   2.876  -9.169  0.00  0.00    +0.000 OA
ATOM     21  N5' NEC     0      -4.022   2.241 -10.784  0.00  0.00    +0.000 N 
ATOM     22  HN5 NEC     0      -4.266   2.274 -11.721  0.00  0.00    +0.000 HD
BRANCH  21  23
ATOM     23  C51 NEC     0      -4.827   1.455  -9.845  0.00  0.00    +0.000 C 
ATOM     24  C52 NEC     0      -5.734   0.502 -10.626  0.00  0.00    +0.000 C 
ENDBRANCH  21  23
ENDBRANCH   1  19
BRANCH   3  25
ATOM     25  O3' NEC     0      -0.814   5.269  -9.904  0.00  0.00    +0.000 OA
ATOM     26 HO3' NEC     0      -0.341   4.427  -9.963  0.00  0.00    +0.000 HD
ENDBRANCH   3  25
BRANCH   4  27
ATOM     27  O2' NEC     0      -0.271   6.159 -12.290  0.00  0.00    +0.000 OA
ATOM     28 HO2' NEC     0       0.009   5.531 -12.970  0.00  0.00    +0.000 HD
ENDBRANCH   4  27
TORSDOF 6
