REMARK VINA RESULT:      -6.2      7.539     10.199
REMARK  Name = NEC.pdb
REMARK  7 active torsions:
REMARK  status: ('A' for Active; 'I' for Inactive)
REMARK    1  A    between atoms: C5'_1  and  C4'_6
REMARK    2  A    between atoms: N5'_3  and  C51_4
REMARK    3  A    between atoms: C51_4  and  C52_5
REMARK    4  A    between atoms: C3'_8  and  O3'_9
REMARK    5  A    between atoms: C2'_10  and  O2'_11
REMARK    6  A    between atoms: C1'_12  and  N9_13
REMARK    7  A    between atoms: C6_17  and  N6_18
REMARK                            x       y       z     vdW  Elec       q    Type
REMARK                         _______ _______ _______ _____ _____    ______ ____
ROOT
ATOM      1  C4' NEC     0      -3.901   5.845 -15.743  0.00  0.00    +0.000 C 
ATOM      2  O4' NEC     0      -4.628   6.049 -16.973  0.00  0.00    +0.000 OA
ATOM      3  C3' NEC     0      -4.521   6.885 -14.776  0.00  0.00    +0.000 C 
ATOM      4  C2' NEC     0      -4.778   8.088 -15.718  0.00  0.00    +0.000 C 
ATOM      5  C1' NEC     0      -4.801   7.467 -17.128  0.00  0.00    +0.000 C 
ENDROOT
BRANCH   5   6
ATOM      6  N9  NEC     0      -6.083   7.745 -17.777  0.00  0.00    +0.000 N 
ATOM      7  C8  NEC     0      -6.323   8.712 -18.706  0.00  0.00    +0.000 A 
ATOM      8  N7  NEC     0      -7.573   8.679 -19.070  0.00  0.00    +0.000 NA
ATOM      9  C5  NEC     0      -8.212   7.691 -18.398  0.00  0.00    +0.000 A 
ATOM     10  C6  NEC     0      -9.529   7.201 -18.380  0.00  0.00    +0.000 C 
ATOM     11  N1  NEC     0      -9.814   6.185 -17.574  0.00  0.00    +0.000 NA
ATOM     12  C2  NEC     0      -8.890   5.643 -16.804  0.00  0.00    +0.000 C 
ATOM     13  N3  NEC     0      -7.644   6.070 -16.788  0.00  0.00    +0.000 N 
ATOM     14  C4  NEC     0      -7.263   7.078 -17.566  0.00  0.00    +0.000 A 
ATOM     15  H   NEC     0      -6.988   5.637 -16.194  0.00  0.00    +0.000 HD
BRANCH  10  16
ATOM     16  N6  NEC     0     -10.505   7.763 -19.184  0.00  0.00    +0.000 NA
ATOM     17 HN61 NEC     0     -10.758   8.691 -19.064  0.00  0.00    +0.000 HD
ATOM     18 HN62 NEC     0     -10.936   7.227 -19.869  0.00  0.00    +0.000 HD
ENDBRANCH  10  16
ENDBRANCH   5   6
BRANCH   1  19
ATOM     19  C5' NEC     0      -4.117   4.446 -15.225  0.00  0.00    +0.000 C 
ATOM     20  O5' NEC     0      -3.851   3.493 -15.927  0.00  0.00    +0.000 OA
ATOM     21  N5' NEC     0      -4.602   4.254 -13.983  0.00  0.00    +0.000 N 
ATOM     22  HN5 NEC     0      -4.814   5.016 -13.423  0.00  0.00    +0.000 HD
BRANCH  21  23
ATOM     23  C51 NEC     0      -4.810   2.895 -13.480  0.00  0.00    +0.000 C 
ATOM     24  C52 NEC     0      -5.044   2.940 -11.969  0.00  0.00    +0.000 C 
ENDBRANCH  21  23
ENDBRANCH   1  19
BRANCH   3  25
ATOM     25  O3' NEC     0      -3.602   7.236 -13.739  0.00  0.00    +0.000 OA
ATOM     26 HO3' NEC     0      -2.922   6.548 -13.724  0.00  0.00    +0.000 HD
ENDBRANCH   3  25
BRANCH   4  27
ATOM     27  O2' NEC     0      -3.720   9.044 -15.609  0.00  0.00    +0.000 OA
ATOM     28 HO2' NEC     0      -3.990   9.818 -16.124  0.00  0.00    +0.000 HD
ENDBRANCH   4  27
TORSDOF 6
