REMARK VINA RESULT:      -6.5      2.369      3.689
REMARK  Name = NGI.pdb
REMARK  14 active torsions:
REMARK  status: ('A' for Active; 'I' for Inactive)
REMARK    1  A    between atoms: C1_1  and  C2_4
REMARK    2  A    between atoms: N1_2  and  C2_4
REMARK    3  A    between atoms: N2_5  and  C5_13
REMARK    4  A    between atoms: C3_7  and  C4_10
REMARK    5  A    between atoms: O3_9  and  C6_16
REMARK    6  A    between atoms: N4_11  and  C10_23
REMARK    7  A    between atoms: O4_12  and  C7_19
REMARK    8  A    between atoms: O5_15  and  C20_33
REMARK    9  A    between atoms: N6_17  and  C12_25
REMARK   10  A    between atoms: C12_25  and  C13_26
REMARK   11  A    between atoms: C13_26  and  C14_27
REMARK   12  A    between atoms: C17_30  and  C18_31
REMARK   13  A    between atoms: C18_31  and  C19_32
REMARK   14  A    between atoms: C19_32  and  C20_33
REMARK                            x       y       z     vdW  Elec       q    Type
REMARK                         _______ _______ _______ _____ _____    ______ ____
ROOT
ATOM      1  N2  NGI     0      -5.502   3.346 -13.429  0.00  0.00    +0.000 N 
ATOM      2  N3  NGI     0      -5.988   2.136 -11.678  0.00  0.00    +0.000 NA
ATOM      3  N5  NGI     0      -2.643   3.170 -10.560  0.00  0.00    +0.000 NA
ATOM      4  N6  NGI     0      -1.158   4.551 -11.719  0.00  0.00    +0.000 N 
ATOM      5  N7  NGI     0      -3.240   4.030 -12.631  0.00  0.00    +0.000 N 
ATOM      6  C8  NGI     0      -6.432   2.549 -12.829  0.00  0.00    +0.000 A 
ATOM      7  C9  NGI     0      -4.745   2.635 -11.470  0.00  0.00    +0.000 A 
ATOM      8  C10 NGI     0      -3.801   2.531 -10.432  0.00  0.00    +0.000 C 
ATOM      9  C11 NGI     0      -2.381   3.905 -11.634  0.00  0.00    +0.000 C 
ATOM     10  C23 NGI     0      -4.420   3.419 -12.589  0.00  0.00    +0.000 A 
ATOM     11  HN6 NGI     0      -0.949   5.092 -12.495  0.00  0.00    +0.000 HD
ATOM     12  H   NGI     0      -3.004   4.582 -13.412  0.00  0.00    +0.000 HD
ENDROOT
BRANCH   1  15
ATOM     13  O2  NGI     0      -4.555   4.939 -14.936  0.00  0.00    +0.000 OA
ATOM     14  C4  NGI     0      -5.027   5.846 -15.955  0.00  0.00    +0.000 C 
ATOM     15  C5  NGI     0      -5.632   3.999 -14.733  0.00  0.00    +0.000 C 
ATOM     16  C6  NGI     0      -6.918   4.854 -14.781  0.00  0.00    +0.000 C 
ATOM     17  C7  NGI     0      -6.510   6.098 -15.603  0.00  0.00    +0.000 C 
BRANCH  14  20
ATOM     18  N1  NGI     0      -4.783   8.262 -16.429  0.00  0.00    +0.000 N 
ATOM     19  O1  NGI     0      -3.148   7.164 -15.407  0.00  0.00    +0.000 OA
ATOM     20  C3  NGI     0      -4.252   7.138 -15.910  0.00  0.00    +0.000 C 
ATOM     21  HN1 NGI     0      -5.666   8.240 -16.832  0.00  0.00    +0.000 HD
BRANCH  18  23
ATOM     22  C1  NGI     0      -3.933  10.103 -17.795  0.00  0.00    +0.000 C 
ATOM     23  C2  NGI     0      -4.028   9.516 -16.386  0.00  0.00    +0.000 C 
ENDBRANCH  18  23
ENDBRANCH  14  20
BRANCH  16  24
ATOM     24  O3  NGI     0      -7.969   4.143 -15.437  0.00  0.00    +0.000 OA
ATOM     25  HO3 NGI     0      -7.697   3.707 -16.256  0.00  0.00    +0.000 HD
ENDBRANCH  16  24
BRANCH  17  26
ATOM     26  O4  NGI     0      -7.298   6.192 -16.791  0.00  0.00    +0.000 OA
ATOM     27  HO4 NGI     0      -6.837   6.598 -17.538  0.00  0.00    +0.000 HD
ENDBRANCH  17  26
ENDBRANCH   1  15
BRANCH   8  28
ATOM     28  N4  NGI     0      -4.073   1.780  -9.303  0.00  0.00    +0.000 NA
ATOM     29  HN4 NGI     0      -4.935   1.858  -8.866  0.00  0.00    +0.000 HD
ATOM     30 HN4A NGI     0      -3.403   1.176  -8.949  0.00  0.00    +0.000 HD
ENDBRANCH   8  28
BRANCH   4  31
ATOM     31  C12 NGI     0      -0.182   4.418 -10.634  0.00  0.00    +0.000 C 
BRANCH  31  32
ATOM     32  C13 NGI     0       0.277   2.961 -10.538  0.00  0.00    +0.000 C 
BRANCH  32  33
ATOM     33  C14 NGI     0      -0.272   2.344  -9.278  0.00  0.00    +0.000 A 
ATOM     34  C15 NGI     0      -0.336   0.969  -9.153  0.00  0.00    +0.000 A 
ATOM     35  C16 NGI     0      -0.840   0.402  -7.997  0.00  0.00    +0.000 A 
ATOM     36  C17 NGI     0      -1.282   1.211  -6.966  0.00  0.00    +0.000 A 
ATOM     37  C21 NGI     0      -1.218   2.586  -7.091  0.00  0.00    +0.000 A 
ATOM     38  C22 NGI     0      -0.708   3.153  -8.244  0.00  0.00    +0.000 A 
BRANCH  36  39
ATOM     39  C18 NGI     0      -1.831   0.593  -5.707  0.00  0.00    +0.000 C 
BRANCH  39  40
ATOM     40  C19 NGI     0      -2.891  -0.448  -6.069  0.00  0.00    +0.000 C 
BRANCH  40  42
ATOM     41  O6  NGI     0      -1.563  -1.905  -4.779  0.00  0.00    +0.000 OA
ATOM     42  C20 NGI     0      -2.438  -1.809  -5.607  0.00  0.00    +0.000 C 
BRANCH  42  43
ATOM     43  O5  NGI     0      -3.007  -2.913  -6.115  0.00  0.00    +0.000 OA
ATOM     44  HO5 NGI     0      -2.417  -3.642  -6.350  0.00  0.00    +0.000 HD
ENDBRANCH  42  43
ENDBRANCH  40  42
ENDBRANCH  39  40
ENDBRANCH  36  39
ENDBRANCH  32  33
ENDBRANCH  31  32
ENDBRANCH   4  31
TORSDOF 13
