REMARK VINA RESULT:      -5.7      6.128      8.817
REMARK  Name = NEC.pdb
REMARK  7 active torsions:
REMARK  status: ('A' for Active; 'I' for Inactive)
REMARK    1  A    between atoms: C5'_1  and  C4'_6
REMARK    2  A    between atoms: N5'_3  and  C51_4
REMARK    3  A    between atoms: C51_4  and  C52_5
REMARK    4  A    between atoms: C3'_8  and  O3'_9
REMARK    5  A    between atoms: C2'_10  and  O2'_11
REMARK    6  A    between atoms: C1'_12  and  N9_13
REMARK    7  A    between atoms: C6_17  and  N6_18
REMARK                            x       y       z     vdW  Elec       q    Type
REMARK                         _______ _______ _______ _____ _____    ______ ____
ROOT
ATOM      1  C4' NEC     0      -3.652   4.832 -14.189  0.00  0.00    +0.000 C 
ATOM      2  O4' NEC     0      -4.136   4.181 -15.383  0.00  0.00    +0.000 OA
ATOM      3  C3' NEC     0      -4.419   6.178 -14.171  0.00  0.00    +0.000 C 
ATOM      4  C2' NEC     0      -4.477   6.537 -15.677  0.00  0.00    +0.000 C 
ATOM      5  C1' NEC     0      -4.252   5.193 -16.396  0.00  0.00    +0.000 C 
ENDROOT
BRANCH   5   6
ATOM      6  N9  NEC     0      -5.388   4.897 -17.270  0.00  0.00    +0.000 N 
ATOM      7  C8  NEC     0      -5.351   4.166 -18.420  0.00  0.00    +0.000 A 
ATOM      8  N7  NEC     0      -6.541   4.101 -18.944  0.00  0.00    +0.000 NA
ATOM      9  C5  NEC     0      -7.414   4.784 -18.166  0.00  0.00    +0.000 A 
ATOM     10  C6  NEC     0      -8.792   5.052 -18.227  0.00  0.00    +0.000 C 
ATOM     11  N1  NEC     0      -9.340   5.779 -17.261  0.00  0.00    +0.000 NA
ATOM     12  C2  NEC     0      -8.614   6.246 -16.262  0.00  0.00    +0.000 C 
ATOM     13  N3  NEC     0      -7.320   6.021 -16.163  0.00  0.00    +0.000 N 
ATOM     14  C4  NEC     0      -6.686   5.297 -17.081  0.00  0.00    +0.000 A 
ATOM     15  H   NEC     0      -6.817   6.392 -15.403  0.00  0.00    +0.000 HD
BRANCH  10  16
ATOM     16  N6  NEC     0      -9.562   4.567 -19.270  0.00  0.00    +0.000 NA
ATOM     17 HN61 NEC     0      -9.791   5.145 -20.015  0.00  0.00    +0.000 HD
ATOM     18 HN62 NEC     0      -9.871   3.647 -19.257  0.00  0.00    +0.000 HD
ENDBRANCH  10  16
ENDBRANCH   5   6
BRANCH   1  19
ATOM     19  C5' NEC     0      -3.984   4.015 -12.967  0.00  0.00    +0.000 C 
ATOM     20  O5' NEC     0      -3.147   3.847 -12.105  0.00  0.00    +0.000 OA
ATOM     21  N5' NEC     0      -5.211   3.474 -12.832  0.00  0.00    +0.000 N 
ATOM     22  HN5 NEC     0      -5.879   3.610 -13.520  0.00  0.00    +0.000 HD
BRANCH  21  23
ATOM     23  C51 NEC     0      -5.534   2.682 -11.643  0.00  0.00    +0.000 C 
ATOM     24  C52 NEC     0      -6.072   1.316 -12.071  0.00  0.00    +0.000 C 
ENDBRANCH  21  23
ENDBRANCH   1  19
BRANCH   3  25
ATOM     25  O3' NEC     0      -3.700   7.171 -13.437  0.00  0.00    +0.000 OA
ATOM     26 HO3' NEC     0      -3.427   6.760 -12.604  0.00  0.00    +0.000 HD
ENDBRANCH   3  25
BRANCH   4  27
ATOM     27  O2' NEC     0      -3.440   7.463 -16.011  0.00  0.00    +0.000 OA
ATOM     28 HO2' NEC     0      -2.600   7.004 -15.869  0.00  0.00    +0.000 HD
ENDBRANCH   4  27
TORSDOF 6
