REMARK VINA RESULT:      -6.7      4.002      6.459
REMARK  Name = ADN.pdb
REMARK  6 active torsions:
REMARK  status: ('A' for Active; 'I' for Inactive)
REMARK    1  A    between atoms: O5'_1  and  C5'_2
REMARK    2  A    between atoms: C5'_2  and  C4'_3
REMARK    3  A    between atoms: C3'_5  and  O3'_6
REMARK    4  A    between atoms: C2'_7  and  O2'_8
REMARK    5  A    between atoms: C1'_9  and  N9_10
REMARK    6  A    between atoms: C6_14  and  N6_15
REMARK                            x       y       z     vdW  Elec       q    Type
REMARK                         _______ _______ _______ _____ _____    ______ ____
ROOT
ATOM      1  N9  ADN     0      -2.234   3.474 -10.794  0.00  0.00    +0.000 N 
ATOM      2  C8  ADN     0      -0.960   3.438 -10.312  0.00  0.00    +0.000 A 
ATOM      3  N7  ADN     0      -0.833   2.462  -9.460  0.00  0.00    +0.000 NA
ATOM      4  C5  ADN     0      -2.017   1.815  -9.338  0.00  0.00    +0.000 A 
ATOM      5  C6  ADN     0      -2.466   0.710  -8.593  0.00  0.00    +0.000 C 
ATOM      6  N1  ADN     0      -3.731   0.329  -8.727  0.00  0.00    +0.000 NA
ATOM      7  C2  ADN     0      -4.553   0.963  -9.544  0.00  0.00    +0.000 C 
ATOM      8  N3  ADN     0      -4.175   1.998 -10.265  0.00  0.00    +0.000 N 
ATOM      9  C4  ADN     0      -2.928   2.451 -10.196  0.00  0.00    +0.000 A 
ATOM     10  H   ADN     0      -4.822   2.439 -10.861  0.00  0.00    +0.000 HD
ENDROOT
BRANCH   1  15
ATOM     11  C4' ADN     0      -3.893   4.611 -13.761  0.00  0.00    +0.000 C 
ATOM     12  O4' ADN     0      -3.800   3.808 -12.564  0.00  0.00    +0.000 OA
ATOM     13  C3' ADN     0      -2.431   4.943 -14.126  0.00  0.00    +0.000 C 
ATOM     14  C2' ADN     0      -1.670   4.821 -12.785  0.00  0.00    +0.000 C 
ATOM     15  C1' ADN     0      -2.765   4.425 -11.770  0.00  0.00    +0.000 C 
BRANCH  13  16
ATOM     16  O3' ADN     0      -2.332   6.273 -14.640  0.00  0.00    +0.000 OA
ATOM     17 HO3' ADN     0      -1.451   6.597 -14.408  0.00  0.00    +0.000 HD
ENDBRANCH  13  16
BRANCH  14  18
ATOM     18  O2' ADN     0      -1.077   6.071 -12.430  0.00  0.00    +0.000 OA
ATOM     19 HO2' ADN     0      -1.782   6.622 -12.063  0.00  0.00    +0.000 HD
ENDBRANCH  14  18
BRANCH  11  20
ATOM     20  C5' ADN     0      -4.558   3.815 -14.886  0.00  0.00    +0.000 C 
BRANCH  20  21
ATOM     21  O5' ADN     0      -3.687   3.771 -16.018  0.00  0.00    +0.000 OA
ATOM     22 HO5' ADN     0      -4.211   4.043 -16.784  0.00  0.00    +0.000 HD
ENDBRANCH  20  21
ENDBRANCH  11  20
ENDBRANCH   1  15
BRANCH   5  23
ATOM     23  N6  ADN     0      -1.612   0.040  -7.735  0.00  0.00    +0.000 NA
ATOM     24 HN61 ADN     0      -1.799   0.020  -6.783  0.00  0.00    +0.000 HD
ATOM     25 HN62 ADN     0      -0.830  -0.414  -8.085  0.00  0.00    +0.000 HD
ENDBRANCH   5  23
TORSDOF 6
