MODEL 1
REMARK VINA RESULT:      -7.0      0.000      0.000
REMARK  Name = ADN.pdb
REMARK  6 active torsions:
REMARK  status: ('A' for Active; 'I' for Inactive)
REMARK    1  A    between atoms: O5'_1  and  C5'_2
REMARK    2  A    between atoms: C5'_2  and  C4'_3
REMARK    3  A    between atoms: C3'_5  and  O3'_6
REMARK    4  A    between atoms: C2'_7  and  O2'_8
REMARK    5  A    between atoms: C1'_9  and  N9_10
REMARK    6  A    between atoms: C6_14  and  N6_15
REMARK                            x       y       z     vdW  Elec       q    Type
REMARK                         _______ _______ _______ _____ _____    ______ ____
ROOT
ATOM      1  N9  ADN     0      -2.701   1.866  -9.544  0.00  0.00    +0.000 N 
ATOM      2  C8  ADN     0      -2.048   2.903 -10.141  0.00  0.00    +0.000 A 
ATOM      3  N7  ADN     0      -2.758   3.369 -11.127  0.00  0.00    +0.000 NA
ATOM      4  C5  ADN     0      -3.909   2.659 -11.228  0.00  0.00    +0.000 A 
ATOM      5  C6  ADN     0      -5.031   2.712 -12.071  0.00  0.00    +0.000 C 
ATOM      6  N1  ADN     0      -6.012   1.838 -11.875  0.00  0.00    +0.000 NA
ATOM      7  C2  ADN     0      -5.945   0.942 -10.907  0.00  0.00    +0.000 C 
ATOM      8  N3  ADN     0      -4.917   0.859 -10.089  0.00  0.00    +0.000 N 
ATOM      9  C4  ADN     0      -3.888   1.691 -10.210  0.00  0.00    +0.000 A 
ATOM     10  H   ADN     0      -4.911   0.175  -9.381  0.00  0.00    +0.000 HD
ENDROOT
BRANCH   1  15
ATOM     11  C4' ADN     0      -2.872  -0.362  -6.742  0.00  0.00    +0.000 C 
ATOM     12  O4' ADN     0      -3.141   0.009  -8.111  0.00  0.00    +0.000 OA
ATOM     13  C3' ADN     0      -2.653   0.978  -6.007  0.00  0.00    +0.000 C 
ATOM     14  C2' ADN     0      -2.215   1.953  -7.125  0.00  0.00    +0.000 C 
ATOM     15  C1' ADN     0      -2.225   1.086  -8.402  0.00  0.00    +0.000 C 
BRANCH  13  16
ATOM     16  O3' ADN     0      -1.625   0.848  -5.023  0.00  0.00    +0.000 OA
ATOM     17 HO3' ADN     0      -1.989   1.187  -4.193  0.00  0.00    +0.000 HD
ENDBRANCH  13  16
BRANCH  14  18
ATOM     18  O2' ADN     0      -0.904   2.457  -6.863  0.00  0.00    +0.000 OA
ATOM     19 HO2' ADN     0      -0.916   2.818  -5.966  0.00  0.00    +0.000 HD
ENDBRANCH  14  18
BRANCH  11  20
ATOM     20  C5' ADN     0      -4.067  -1.110  -6.147  0.00  0.00    +0.000 C 
BRANCH  20  21
ATOM     21  O5' ADN     0      -3.603  -2.258  -5.433  0.00  0.00    +0.000 OA
ATOM     22 HO5' ADN     0      -3.871  -3.033  -5.946  0.00  0.00    +0.000 HD
ENDBRANCH  20  21
ENDBRANCH  11  20
ENDBRANCH   1  15
BRANCH   5  23
ATOM     23  N6  ADN     0      -5.110   3.646 -13.088  0.00  0.00    +0.000 NA
ATOM     24 HN61 ADN     0      -5.918   4.171 -13.204  0.00  0.00    +0.000 HD
ATOM     25 HN62 ADN     0      -4.355   3.781 -13.683  0.00  0.00    +0.000 HD
ENDBRANCH   5  23
TORSDOF 6
ENDMDL
MODEL 2
REMARK VINA RESULT:      -6.9      1.270      2.585
REMARK  Name = ADN.pdb
REMARK  6 active torsions:
REMARK  status: ('A' for Active; 'I' for Inactive)
REMARK    1  A    between atoms: O5'_1  and  C5'_2
REMARK    2  A    between atoms: C5'_2  and  C4'_3
REMARK    3  A    between atoms: C3'_5  and  O3'_6
REMARK    4  A    between atoms: C2'_7  and  O2'_8
REMARK    5  A    between atoms: C1'_9  and  N9_10
REMARK    6  A    between atoms: C6_14  and  N6_15
REMARK                            x       y       z     vdW  Elec       q    Type
REMARK                         _______ _______ _______ _____ _____    ______ ____
ROOT
ATOM      1  N9  ADN     0      -2.701   1.844  -9.532  0.00  0.00    +0.000 N 
ATOM      2  C8  ADN     0      -3.926   1.770 -10.124  0.00  0.00    +0.000 A 
ATOM      3  N7  ADN     0      -4.003   2.631 -11.097  0.00  0.00    +0.000 NA
ATOM      4  C5  ADN     0      -2.836   3.315 -11.186  0.00  0.00    +0.000 A 
ATOM      5  C6  ADN     0      -2.348   4.330 -12.027  0.00  0.00    +0.000 C 
ATOM      6  N1  ADN     0      -1.113   4.775 -11.829  0.00  0.00    +0.000 NA
ATOM      7  C2  ADN     0      -0.351   4.277 -10.873  0.00  0.00    +0.000 C 
ATOM      8  N3  ADN     0      -0.763   3.321 -10.066  0.00  0.00    +0.000 N 
ATOM      9  C4  ADN     0      -1.986   2.814 -10.188  0.00  0.00    +0.000 A 
ATOM     10  H   ADN     0      -0.160   2.979  -9.367  0.00  0.00    +0.000 HD
ENDROOT
BRANCH   1  15
ATOM     11  C4' ADN     0      -2.903  -0.415  -6.755  0.00  0.00    +0.000 C 
ATOM     12  O4' ADN     0      -3.176  -0.019  -8.117  0.00  0.00    +0.000 OA
ATOM     13  C3' ADN     0      -2.641   0.910  -6.006  0.00  0.00    +0.000 C 
ATOM     14  C2' ADN     0      -2.189   1.887  -7.116  0.00  0.00    +0.000 C 
ATOM     15  C1' ADN     0      -2.234   1.036  -8.404  0.00  0.00    +0.000 C 
BRANCH  13  16
ATOM     16  O3' ADN     0      -1.607   0.740  -5.034  0.00  0.00    +0.000 OA
ATOM     17 HO3' ADN     0      -2.039   0.716  -4.169  0.00  0.00    +0.000 HD
ENDBRANCH  13  16
BRANCH  14  18
ATOM     18  O2' ADN     0      -0.862   2.352  -6.862  0.00  0.00    +0.000 OA
ATOM     19 HO2' ADN     0      -0.576   1.946  -6.033  0.00  0.00    +0.000 HD
ENDBRANCH  14  18
BRANCH  11  20
ATOM     20  C5' ADN     0      -4.112  -1.138  -6.158  0.00  0.00    +0.000 C 
BRANCH  20  21
ATOM     21  O5' ADN     0      -3.667  -2.274  -5.414  0.00  0.00    +0.000 OA
ATOM     22 HO5' ADN     0      -4.195  -2.301  -4.604  0.00  0.00    +0.000 HD
ENDBRANCH  20  21
ENDBRANCH  11  20
ENDBRANCH   1  15
BRANCH   5  23
ATOM     23  N6  ADN     0      -3.139   4.859 -13.031  0.00  0.00    +0.000 NA
ATOM     24 HN61 ADN     0      -3.964   4.415 -13.284  0.00  0.00    +0.000 HD
ATOM     25 HN62 ADN     0      -2.871   5.676 -13.480  0.00  0.00    +0.000 HD
ENDBRANCH   5  23
TORSDOF 6
ENDMDL
MODEL 3
REMARK VINA RESULT:      -6.8      1.446      2.322
REMARK  Name = ADN.pdb
REMARK  6 active torsions:
REMARK  status: ('A' for Active; 'I' for Inactive)
REMARK    1  A    between atoms: O5'_1  and  C5'_2
REMARK    2  A    between atoms: C5'_2  and  C4'_3
REMARK    3  A    between atoms: C3'_5  and  O3'_6
REMARK    4  A    between atoms: C2'_7  and  O2'_8
REMARK    5  A    between atoms: C1'_9  and  N9_10
REMARK    6  A    between atoms: C6_14  and  N6_15
REMARK                            x       y       z     vdW  Elec       q    Type
REMARK                         _______ _______ _______ _____ _____    ______ ____
ROOT
ATOM      1  N9  ADN     0      -3.777   0.466  -8.994  0.00  0.00    +0.000 N 
ATOM      2  C8  ADN     0      -4.791  -0.436  -8.864  0.00  0.00    +0.000 A 
ATOM      3  N7  ADN     0      -5.716  -0.196  -9.748  0.00  0.00    +0.000 NA
ATOM      4  C5  ADN     0      -5.356   0.875 -10.497  0.00  0.00    +0.000 A 
ATOM      5  C6  ADN     0      -5.936   1.567 -11.574  0.00  0.00    +0.000 C 
ATOM      6  N1  ADN     0      -5.282   2.602 -12.087  0.00  0.00    +0.000 NA
ATOM      7  C2  ADN     0      -4.110   2.976 -11.607  0.00  0.00    +0.000 C 
ATOM      8  N3  ADN     0      -3.525   2.355 -10.604  0.00  0.00    +0.000 N 
ATOM      9  C4  ADN     0      -4.106   1.308 -10.026  0.00  0.00    +0.000 A 
ATOM     10  H   ADN     0      -2.651   2.668 -10.279  0.00  0.00    +0.000 HD
ENDROOT
BRANCH   1  15
ATOM     11  C4' ADN     0      -1.530  -0.327  -6.316  0.00  0.00    +0.000 C 
ATOM     12  O4' ADN     0      -2.424  -0.678  -7.395  0.00  0.00    +0.000 OA
ATOM     13  C3' ADN     0      -1.964   1.092  -5.892  0.00  0.00    +0.000 C 
ATOM     14  C2' ADN     0      -2.656   1.666  -7.151  0.00  0.00    +0.000 C 
ATOM     15  C1' ADN     0      -2.560   0.523  -8.184  0.00  0.00    +0.000 C 
BRANCH  13  16
ATOM     16  O3' ADN     0      -0.824   1.881  -5.542  0.00  0.00    +0.000 OA
ATOM     17 HO3' ADN     0      -0.830   1.967  -4.579  0.00  0.00    +0.000 HD
ENDBRANCH  13  16
BRANCH  14  18
ATOM     18  O2' ADN     0      -1.966   2.828  -7.614  0.00  0.00    +0.000 OA
ATOM     19 HO2' ADN     0      -2.222   3.558  -7.034  0.00  0.00    +0.000 HD
ENDBRANCH  14  18
BRANCH  11  20
ATOM     20  C5' ADN     0      -1.690  -1.306  -5.151  0.00  0.00    +0.000 C 
BRANCH  20  21
ATOM     21  O5' ADN     0      -1.001  -2.521  -5.452  0.00  0.00    +0.000 OA
ATOM     22 HO5' ADN     0      -0.264  -2.586  -4.829  0.00  0.00    +0.000 HD
ENDBRANCH  20  21
ENDBRANCH  11  20
ENDBRANCH   1  15
BRANCH   5  23
ATOM     23  N6  ADN     0      -7.163   1.183 -12.084  0.00  0.00    +0.000 NA
ATOM     24 HN61 ADN     0      -7.559   1.677 -12.819  0.00  0.00    +0.000 HD
ATOM     25 HN62 ADN     0      -7.627   0.417 -11.709  0.00  0.00    +0.000 HD
ENDBRANCH   5  23
TORSDOF 6
ENDMDL
MODEL 4
REMARK VINA RESULT:      -6.7      4.002      6.459
REMARK  Name = ADN.pdb
REMARK  6 active torsions:
REMARK  status: ('A' for Active; 'I' for Inactive)
REMARK    1  A    between atoms: O5'_1  and  C5'_2
REMARK    2  A    between atoms: C5'_2  and  C4'_3
REMARK    3  A    between atoms: C3'_5  and  O3'_6
REMARK    4  A    between atoms: C2'_7  and  O2'_8
REMARK    5  A    between atoms: C1'_9  and  N9_10
REMARK    6  A    between atoms: C6_14  and  N6_15
REMARK                            x       y       z     vdW  Elec       q    Type
REMARK                         _______ _______ _______ _____ _____    ______ ____
ROOT
ATOM      1  N9  ADN     0      -2.234   3.474 -10.794  0.00  0.00    +0.000 N 
ATOM      2  C8  ADN     0      -0.960   3.438 -10.312  0.00  0.00    +0.000 A 
ATOM      3  N7  ADN     0      -0.833   2.462  -9.460  0.00  0.00    +0.000 NA
ATOM      4  C5  ADN     0      -2.017   1.815  -9.338  0.00  0.00    +0.000 A 
ATOM      5  C6  ADN     0      -2.466   0.710  -8.593  0.00  0.00    +0.000 C 
ATOM      6  N1  ADN     0      -3.731   0.329  -8.727  0.00  0.00    +0.000 NA
ATOM      7  C2  ADN     0      -4.553   0.963  -9.544  0.00  0.00    +0.000 C 
ATOM      8  N3  ADN     0      -4.175   1.998 -10.265  0.00  0.00    +0.000 N 
ATOM      9  C4  ADN     0      -2.928   2.451 -10.196  0.00  0.00    +0.000 A 
ATOM     10  H   ADN     0      -4.822   2.439 -10.861  0.00  0.00    +0.000 HD
ENDROOT
BRANCH   1  15
ATOM     11  C4' ADN     0      -3.893   4.611 -13.761  0.00  0.00    +0.000 C 
ATOM     12  O4' ADN     0      -3.800   3.808 -12.564  0.00  0.00    +0.000 OA
ATOM     13  C3' ADN     0      -2.431   4.943 -14.126  0.00  0.00    +0.000 C 
ATOM     14  C2' ADN     0      -1.670   4.821 -12.785  0.00  0.00    +0.000 C 
ATOM     15  C1' ADN     0      -2.765   4.425 -11.770  0.00  0.00    +0.000 C 
BRANCH  13  16
ATOM     16  O3' ADN     0      -2.332   6.273 -14.640  0.00  0.00    +0.000 OA
ATOM     17 HO3' ADN     0      -1.451   6.597 -14.408  0.00  0.00    +0.000 HD
ENDBRANCH  13  16
BRANCH  14  18
ATOM     18  O2' ADN     0      -1.077   6.071 -12.430  0.00  0.00    +0.000 OA
ATOM     19 HO2' ADN     0      -1.782   6.622 -12.063  0.00  0.00    +0.000 HD
ENDBRANCH  14  18
BRANCH  11  20
ATOM     20  C5' ADN     0      -4.558   3.815 -14.886  0.00  0.00    +0.000 C 
BRANCH  20  21
ATOM     21  O5' ADN     0      -3.687   3.771 -16.018  0.00  0.00    +0.000 OA
ATOM     22 HO5' ADN     0      -4.211   4.043 -16.784  0.00  0.00    +0.000 HD
ENDBRANCH  20  21
ENDBRANCH  11  20
ENDBRANCH   1  15
BRANCH   5  23
ATOM     23  N6  ADN     0      -1.612   0.040  -7.735  0.00  0.00    +0.000 NA
ATOM     24 HN61 ADN     0      -1.799   0.020  -6.783  0.00  0.00    +0.000 HD
ATOM     25 HN62 ADN     0      -0.830  -0.414  -8.085  0.00  0.00    +0.000 HD
ENDBRANCH   5  23
TORSDOF 6
ENDMDL
MODEL 5
REMARK VINA RESULT:      -6.7      4.935      7.488
REMARK  Name = ADN.pdb
REMARK  6 active torsions:
REMARK  status: ('A' for Active; 'I' for Inactive)
REMARK    1  A    between atoms: O5'_1  and  C5'_2
REMARK    2  A    between atoms: C5'_2  and  C4'_3
REMARK    3  A    between atoms: C3'_5  and  O3'_6
REMARK    4  A    between atoms: C2'_7  and  O2'_8
REMARK    5  A    between atoms: C1'_9  and  N9_10
REMARK    6  A    between atoms: C6_14  and  N6_15
REMARK                            x       y       z     vdW  Elec       q    Type
REMARK                         _______ _______ _______ _____ _____    ______ ____
ROOT
ATOM      1  N9  ADN     0      -3.461   4.283 -12.618  0.00  0.00    +0.000 N 
ATOM      2  C8  ADN     0      -2.244   4.434 -12.023  0.00  0.00    +0.000 A 
ATOM      3  N7  ADN     0      -2.117   3.584 -11.045  0.00  0.00    +0.000 NA
ATOM      4  C5  ADN     0      -3.244   2.839 -10.948  0.00  0.00    +0.000 A 
ATOM      5  C6  ADN     0      -3.666   1.790 -10.112  0.00  0.00    +0.000 C 
ATOM      6  N1  ADN     0      -4.871   1.270 -10.309  0.00  0.00    +0.000 NA
ATOM      7  C2  ADN     0      -5.660   1.716 -11.270  0.00  0.00    +0.000 C 
ATOM      8  N3  ADN     0      -5.305   2.691 -12.081  0.00  0.00    +0.000 N 
ATOM      9  C4  ADN     0      -4.117   3.273 -11.958  0.00  0.00    +0.000 A 
ATOM     10  H   ADN     0      -5.926   2.991 -12.784  0.00  0.00    +0.000 HD
ENDROOT
BRANCH   1  15
ATOM     11  C4' ADN     0      -5.832   5.454 -15.038  0.00  0.00    +0.000 C 
ATOM     12  O4' ADN     0      -5.413   5.140 -13.692  0.00  0.00    +0.000 OA
ATOM     13  C3' ADN     0      -4.927   4.590 -15.943  0.00  0.00    +0.000 C 
ATOM     14  C2' ADN     0      -3.674   4.322 -15.077  0.00  0.00    +0.000 C 
ATOM     15  C1' ADN     0      -3.973   5.053 -13.751  0.00  0.00    +0.000 C 
BRANCH  13  16
ATOM     16  O3' ADN     0      -4.574   5.305 -17.129  0.00  0.00    +0.000 OA
ATOM     17 HO3' ADN     0      -3.688   5.010 -17.380  0.00  0.00    +0.000 HD
ENDBRANCH  13  16
BRANCH  14  18
ATOM     18  O2' ADN     0      -2.509   4.862 -15.704  0.00  0.00    +0.000 OA
ATOM     19 HO2' ADN     0      -2.452   4.462 -16.582  0.00  0.00    +0.000 HD
ENDBRANCH  14  18
BRANCH  11  20
ATOM     20  C5' ADN     0      -7.302   5.082 -15.239  0.00  0.00    +0.000 C 
BRANCH  20  21
ATOM     21  O5' ADN     0      -7.522   4.731 -16.607  0.00  0.00    +0.000 OA
ATOM     22 HO5' ADN     0      -6.667   4.457 -16.966  0.00  0.00    +0.000 HD
ENDBRANCH  20  21
ENDBRANCH  11  20
ENDBRANCH   1  15
BRANCH   5  23
ATOM     23  N6  ADN     0      -2.847   1.317  -9.103  0.00  0.00    +0.000 NA
ATOM     24 HN61 ADN     0      -2.902   0.388  -8.829  0.00  0.00    +0.000 HD
ATOM     25 HN62 ADN     0      -2.215   1.912  -8.671  0.00  0.00    +0.000 HD
ENDBRANCH   5  23
TORSDOF 6
ENDMDL
MODEL 6
REMARK VINA RESULT:      -6.7      1.284      2.313
REMARK  Name = ADN.pdb
REMARK  6 active torsions:
REMARK  status: ('A' for Active; 'I' for Inactive)
REMARK    1  A    between atoms: O5'_1  and  C5'_2
REMARK    2  A    between atoms: C5'_2  and  C4'_3
REMARK    3  A    between atoms: C3'_5  and  O3'_6
REMARK    4  A    between atoms: C2'_7  and  O2'_8
REMARK    5  A    between atoms: C1'_9  and  N9_10
REMARK    6  A    between atoms: C6_14  and  N6_15
REMARK                            x       y       z     vdW  Elec       q    Type
REMARK                         _______ _______ _______ _____ _____    ______ ____
ROOT
ATOM      1  N9  ADN     0      -3.070   1.903  -9.857  0.00  0.00    +0.000 N 
ATOM      2  C8  ADN     0      -4.321   1.393 -10.040  0.00  0.00    +0.000 A 
ATOM      3  N7  ADN     0      -4.906   1.994 -11.035  0.00  0.00    +0.000 NA
ATOM      4  C5  ADN     0      -4.070   2.929 -11.550  0.00  0.00    +0.000 A 
ATOM      5  C6  ADN     0      -4.151   3.851 -12.608  0.00  0.00    +0.000 C 
ATOM      6  N1  ADN     0      -3.107   4.635 -12.845  0.00  0.00    +0.000 NA
ATOM      7  C2  ADN     0      -2.011   4.554 -12.112  0.00  0.00    +0.000 C 
ATOM      8  N3  ADN     0      -1.887   3.702 -11.116  0.00  0.00    +0.000 N 
ATOM      9  C4  ADN     0      -2.881   2.877 -10.805  0.00  0.00    +0.000 A 
ATOM     10  H   ADN     0      -1.051   3.676 -10.598  0.00  0.00    +0.000 HD
ENDROOT
BRANCH   1  15
ATOM     11  C4' ADN     0      -1.833   0.212  -6.949  0.00  0.00    +0.000 C 
ATOM     12  O4' ADN     0      -2.536   0.261  -8.209  0.00  0.00    +0.000 OA
ATOM     13  C3' ADN     0      -1.868   1.662  -6.422  0.00  0.00    +0.000 C 
ATOM     14  C2' ADN     0      -2.049   2.521  -7.695  0.00  0.00    +0.000 C 
ATOM     15  C1' ADN     0      -2.105   1.486  -8.839  0.00  0.00    +0.000 C 
BRANCH  13  16
ATOM     16  O3' ADN     0      -0.640   1.988  -5.767  0.00  0.00    +0.000 OA
ATOM     17 HO3' ADN     0      -0.802   1.912  -4.817  0.00  0.00    +0.000 HD
ENDBRANCH  13  16
BRANCH  14  18
ATOM     18  O2' ADN     0      -0.940   3.405  -7.864  0.00  0.00    +0.000 OA
ATOM     19 HO2' ADN     0      -0.176   2.857  -8.092  0.00  0.00    +0.000 HD
ENDBRANCH  14  18
BRANCH  11  20
ATOM     20  C5' ADN     0      -2.547  -0.729  -5.976  0.00  0.00    +0.000 C 
BRANCH  20  21
ATOM     21  O5' ADN     0      -1.583  -1.366  -5.135  0.00  0.00    +0.000 OA
ATOM     22 HO5' ADN     0      -1.962  -2.216  -4.871  0.00  0.00    +0.000 HD
ENDBRANCH  20  21
ENDBRANCH  11  20
ENDBRANCH   1  15
BRANCH   5  23
ATOM     23  N6  ADN     0      -5.295   3.943 -13.380  0.00  0.00    +0.000 NA
ATOM     24 HN61 ADN     0      -6.000   3.283 -13.285  0.00  0.00    +0.000 HD
ATOM     25 HN62 ADN     0      -5.396   4.671 -14.014  0.00  0.00    +0.000 HD
ENDBRANCH   5  23
TORSDOF 6
ENDMDL
MODEL 7
REMARK VINA RESULT:      -6.5      3.175      6.060
REMARK  Name = ADN.pdb
REMARK  6 active torsions:
REMARK  status: ('A' for Active; 'I' for Inactive)
REMARK    1  A    between atoms: O5'_1  and  C5'_2
REMARK    2  A    between atoms: C5'_2  and  C4'_3
REMARK    3  A    between atoms: C3'_5  and  O3'_6
REMARK    4  A    between atoms: C2'_7  and  O2'_8
REMARK    5  A    between atoms: C1'_9  and  N9_10
REMARK    6  A    between atoms: C6_14  and  N6_15
REMARK                            x       y       z     vdW  Elec       q    Type
REMARK                         _______ _______ _______ _____ _____    ______ ____
ROOT
ATOM      1  N9  ADN     0      -2.797   1.469  -8.596  0.00  0.00    +0.000 N 
ATOM      2  C8  ADN     0      -3.790   0.665  -9.071  0.00  0.00    +0.000 A 
ATOM      3  N7  ADN     0      -3.901  -0.395  -8.325  0.00  0.00    +0.000 NA
ATOM      4  C5  ADN     0      -2.984  -0.341  -7.328  0.00  0.00    +0.000 A 
ATOM      5  C6  ADN     0      -2.651  -1.175  -6.246  0.00  0.00    +0.000 C 
ATOM      6  N1  ADN     0      -1.671  -0.797  -5.434  0.00  0.00    +0.000 NA
ATOM      7  C2  ADN     0      -1.023   0.338  -5.628  0.00  0.00    +0.000 C 
ATOM      8  N3  ADN     0      -1.304   1.153  -6.623  0.00  0.00    +0.000 N 
ATOM      9  C4  ADN     0      -2.270   0.857  -7.486  0.00  0.00    +0.000 A 
ATOM     10  H   ADN     0      -0.795   1.989  -6.727  0.00  0.00    +0.000 HD
ENDROOT
BRANCH   1  15
ATOM     11  C4' ADN     0      -2.399   4.040 -11.063  0.00  0.00    +0.000 C 
ATOM     12  O4' ADN     0      -3.179   3.082 -10.314  0.00  0.00    +0.000 OA
ATOM     13  C3' ADN     0      -0.951   3.511 -10.989  0.00  0.00    +0.000 C 
ATOM     14  C2' ADN     0      -0.931   2.643  -9.708  0.00  0.00    +0.000 C 
ATOM     15  C1' ADN     0      -2.372   2.749  -9.164  0.00  0.00    +0.000 C 
BRANCH  13  16
ATOM     16  O3' ADN     0      -0.027   4.596 -10.874  0.00  0.00    +0.000 OA
ATOM     17 HO3' ADN     0       0.824   4.212 -10.621  0.00  0.00    +0.000 HD
ENDBRANCH  13  16
BRANCH  14  18
ATOM     18  O2' ADN     0       0.007   3.165  -8.765  0.00  0.00    +0.000 OA
ATOM     19 HO2' ADN     0      -0.446   3.865  -8.277  0.00  0.00    +0.000 HD
ENDBRANCH  14  18
BRANCH  11  20
ATOM     20  C5' ADN     0      -2.876   4.095 -12.515  0.00  0.00    +0.000 C 
BRANCH  20  21
ATOM     21  O5' ADN     0      -2.021   4.962 -13.264  0.00  0.00    +0.000 OA
ATOM     22 HO5' ADN     0      -2.589   5.459 -13.869  0.00  0.00    +0.000 HD
ENDBRANCH  20  21
ENDBRANCH  11  20
ENDBRANCH   1  15
BRANCH   5  23
ATOM     23  N6  ADN     0      -3.324  -2.365  -6.036  0.00  0.00    +0.000 NA
ATOM     24 HN61 ADN     0      -3.028  -3.175  -6.482  0.00  0.00    +0.000 HD
ATOM     25 HN62 ADN     0      -4.089  -2.392  -5.440  0.00  0.00    +0.000 HD
ENDBRANCH   5  23
TORSDOF 6
ENDMDL
MODEL 8
REMARK VINA RESULT:      -6.4      1.701      2.912
REMARK  Name = ADN.pdb
REMARK  6 active torsions:
REMARK  status: ('A' for Active; 'I' for Inactive)
REMARK    1  A    between atoms: O5'_1  and  C5'_2
REMARK    2  A    between atoms: C5'_2  and  C4'_3
REMARK    3  A    between atoms: C3'_5  and  O3'_6
REMARK    4  A    between atoms: C2'_7  and  O2'_8
REMARK    5  A    between atoms: C1'_9  and  N9_10
REMARK    6  A    between atoms: C6_14  and  N6_15
REMARK                            x       y       z     vdW  Elec       q    Type
REMARK                         _______ _______ _______ _____ _____    ______ ____
ROOT
ATOM      1  N9  ADN     0      -2.583   3.237  -9.897  0.00  0.00    +0.000 N 
ATOM      2  C8  ADN     0      -1.406   3.922  -9.976  0.00  0.00    +0.000 A 
ATOM      3  N7  ADN     0      -1.299   4.490 -11.142  0.00  0.00    +0.000 NA
ATOM      4  C5  ADN     0      -2.396   4.204 -11.885  0.00  0.00    +0.000 A 
ATOM      5  C6  ADN     0      -2.828   4.541 -13.180  0.00  0.00    +0.000 C 
ATOM      6  N1  ADN     0      -4.000   4.076 -13.597  0.00  0.00    +0.000 NA
ATOM      7  C2  ADN     0      -4.752   3.320 -12.818  0.00  0.00    +0.000 C 
ATOM      8  N3  ADN     0      -4.391   2.985 -11.596  0.00  0.00    +0.000 N 
ATOM      9  C4  ADN     0      -3.234   3.402 -11.094  0.00  0.00    +0.000 A 
ATOM     10  H   ADN     0      -4.985   2.419 -11.051  0.00  0.00    +0.000 HD
ENDROOT
BRANCH   1  15
ATOM     11  C4' ADN     0      -2.433   1.519  -6.755  0.00  0.00    +0.000 C 
ATOM     12  O4' ADN     0      -2.179   2.647  -7.620  0.00  0.00    +0.000 OA
ATOM     13  C3' ADN     0      -2.591   0.317  -7.712  0.00  0.00    +0.000 C 
ATOM     14  C2' ADN     0      -3.017   0.958  -9.054  0.00  0.00    +0.000 C 
ATOM     15  C1' ADN     0      -3.063   2.470  -8.748  0.00  0.00    +0.000 C 
BRANCH  13  16
ATOM     16  O3' ADN     0      -3.603  -0.573  -7.237  0.00  0.00    +0.000 OA
ATOM     17 HO3' ADN     0      -3.692  -1.272  -7.898  0.00  0.00    +0.000 HD
ENDBRANCH  13  16
BRANCH  14  18
ATOM     18  O2' ADN     0      -4.305   0.481  -9.449  0.00  0.00    +0.000 OA
ATOM     19 HO2' ADN     0      -4.216   0.148 -10.352  0.00  0.00    +0.000 HD
ENDBRANCH  14  18
BRANCH  11  20
ATOM     20  C5' ADN     0      -1.253   1.297  -5.807  0.00  0.00    +0.000 C 
BRANCH  20  21
ATOM     21  O5' ADN     0      -1.524   1.927  -4.553  0.00  0.00    +0.000 OA
ATOM     22 HO5' ADN     0      -1.135   2.812  -4.596  0.00  0.00    +0.000 HD
ENDBRANCH  20  21
ENDBRANCH  11  20
ENDBRANCH   1  15
BRANCH   5  23
ATOM     23  N6  ADN     0      -2.046   5.331 -14.003  0.00  0.00    +0.000 NA
ATOM     24 HN61 ADN     0      -1.091   5.399 -13.847  0.00  0.00    +0.000 HD
ATOM     25 HN62 ADN     0      -2.452   5.814 -14.740  0.00  0.00    +0.000 HD
ENDBRANCH   5  23
TORSDOF 6
ENDMDL
MODEL 9
REMARK VINA RESULT:      -6.4      1.736      3.387
REMARK  Name = ADN.pdb
REMARK  6 active torsions:
REMARK  status: ('A' for Active; 'I' for Inactive)
REMARK    1  A    between atoms: O5'_1  and  C5'_2
REMARK    2  A    between atoms: C5'_2  and  C4'_3
REMARK    3  A    between atoms: C3'_5  and  O3'_6
REMARK    4  A    between atoms: C2'_7  and  O2'_8
REMARK    5  A    between atoms: C1'_9  and  N9_10
REMARK    6  A    between atoms: C6_14  and  N6_15
REMARK                            x       y       z     vdW  Elec       q    Type
REMARK                         _______ _______ _______ _____ _____    ______ ____
ROOT
ATOM      1  N9  ADN     0      -3.588   2.315  -9.756  0.00  0.00    +0.000 N 
ATOM      2  C8  ADN     0      -4.471   2.314 -10.795  0.00  0.00    +0.000 A 
ATOM      3  N7  ADN     0      -4.018   3.055 -11.765  0.00  0.00    +0.000 NA
ATOM      4  C5  ADN     0      -2.821   3.581 -11.408  0.00  0.00    +0.000 A 
ATOM      5  C6  ADN     0      -1.886   4.423 -12.034  0.00  0.00    +0.000 C 
ATOM      6  N1  ADN     0      -0.779   4.741 -11.374  0.00  0.00    +0.000 NA
ATOM      7  C2  ADN     0      -0.550   4.276 -10.159  0.00  0.00    +0.000 C 
ATOM      8  N3  ADN     0      -1.394   3.480  -9.536  0.00  0.00    +0.000 N 
ATOM      9  C4  ADN     0      -2.529   3.108 -10.119  0.00  0.00    +0.000 A 
ATOM     10  H   ADN     0      -1.181   3.157  -8.631  0.00  0.00    +0.000 HD
ENDROOT
BRANCH   1  15
ATOM     11  C4' ADN     0      -2.602   0.722  -6.700  0.00  0.00    +0.000 C 
ATOM     12  O4' ADN     0      -2.588   1.811  -7.648  0.00  0.00    +0.000 OA
ATOM     13  C3' ADN     0      -3.012  -0.515  -7.528  0.00  0.00    +0.000 C 
ATOM     14  C2' ADN     0      -3.783   0.077  -8.732  0.00  0.00    +0.000 C 
ATOM     15  C1' ADN     0      -3.742   1.601  -8.488  0.00  0.00    +0.000 C 
BRANCH  13  16
ATOM     16  O3' ADN     0      -3.860  -1.372  -6.761  0.00  0.00    +0.000 OA
ATOM     17 HO3' ADN     0      -3.351  -1.648  -5.987  0.00  0.00    +0.000 HD
ENDBRANCH  13  16
BRANCH  14  18
ATOM     18  O2' ADN     0      -5.130  -0.400  -8.746  0.00  0.00    +0.000 OA
ATOM     19 HO2' ADN     0      -5.532  -0.080  -9.565  0.00  0.00    +0.000 HD
ENDBRANCH  14  18
BRANCH  11  20
ATOM     20  C5' ADN     0      -1.210   0.524  -6.095  0.00  0.00    +0.000 C 
BRANCH  20  21
ATOM     21  O5' ADN     0      -1.160  -0.733  -5.417  0.00  0.00    +0.000 OA
ATOM     22 HO5' ADN     0      -1.979  -1.200  -5.635  0.00  0.00    +0.000 HD
ENDBRANCH  20  21
ENDBRANCH  11  20
ENDBRANCH   1  15
BRANCH   5  23
ATOM     23  N6  ADN     0      -2.118   4.915 -13.306  0.00  0.00    +0.000 NA
ATOM     24 HN61 ADN     0      -1.391   5.311 -13.813  0.00  0.00    +0.000 HD
ATOM     25 HN62 ADN     0      -3.006   4.861 -13.694  0.00  0.00    +0.000 HD
ENDBRANCH   5  23
TORSDOF 6
ENDMDL
MODEL 10
REMARK VINA RESULT:      -6.4      5.087      7.903
REMARK  Name = ADN.pdb
REMARK  6 active torsions:
REMARK  status: ('A' for Active; 'I' for Inactive)
REMARK    1  A    between atoms: O5'_1  and  C5'_2
REMARK    2  A    between atoms: C5'_2  and  C4'_3
REMARK    3  A    between atoms: C3'_5  and  O3'_6
REMARK    4  A    between atoms: C2'_7  and  O2'_8
REMARK    5  A    between atoms: C1'_9  and  N9_10
REMARK    6  A    between atoms: C6_14  and  N6_15
REMARK                            x       y       z     vdW  Elec       q    Type
REMARK                         _______ _______ _______ _____ _____    ______ ____
ROOT
ATOM      1  N9  ADN     0      -4.114   3.877 -12.603  0.00  0.00    +0.000 N 
ATOM      2  C8  ADN     0      -4.932   2.923 -12.074  0.00  0.00    +0.000 A 
ATOM      3  N7  ADN     0      -4.331   2.316 -11.091  0.00  0.00    +0.000 NA
ATOM      4  C5  ADN     0      -3.090   2.838 -10.931  0.00  0.00    +0.000 A 
ATOM      5  C6  ADN     0      -2.023   2.595 -10.050  0.00  0.00    +0.000 C 
ATOM      6  N1  ADN     0      -0.919   3.322 -10.177  0.00  0.00    +0.000 NA
ATOM      7  C2  ADN     0      -0.821   4.259 -11.103  0.00  0.00    +0.000 C 
ATOM      8  N3  ADN     0      -1.797   4.526 -11.945  0.00  0.00    +0.000 N 
ATOM      9  C4  ADN     0      -2.939   3.848 -11.894  0.00  0.00    +0.000 A 
ATOM     10  H   ADN     0      -1.679   5.234 -12.619  0.00  0.00    +0.000 HD
ENDROOT
BRANCH   1  15
ATOM     11  C4' ADN     0      -6.103   5.441 -15.142  0.00  0.00    +0.000 C 
ATOM     12  O4' ADN     0      -5.854   4.999 -13.789  0.00  0.00    +0.000 OA
ATOM     13  C3' ADN     0      -5.201   4.547 -16.019  0.00  0.00    +0.000 C 
ATOM     14  C2' ADN     0      -4.073   4.095 -15.062  0.00  0.00    +0.000 C 
ATOM     15  C1' ADN     0      -4.431   4.768 -13.719  0.00  0.00    +0.000 C 
BRANCH  13  16
ATOM     16  O3' ADN     0      -4.662   5.297 -17.111  0.00  0.00    +0.000 OA
ATOM     17 HO3' ADN     0      -3.701   5.197 -17.070  0.00  0.00    +0.000 HD
ENDBRANCH  13  16
BRANCH  14  18
ATOM     18  O2' ADN     0      -2.804   4.550 -15.535  0.00  0.00    +0.000 OA
ATOM     19 HO2' ADN     0      -2.249   3.766 -15.648  0.00  0.00    +0.000 HD
ENDBRANCH  14  18
BRANCH  11  20
ATOM     20  C5' ADN     0      -7.575   5.238 -15.506  0.00  0.00    +0.000 C 
BRANCH  20  21
ATOM     21  O5' ADN     0      -7.668   4.682 -16.820  0.00  0.00    +0.000 OA
ATOM     22 HO5' ADN     0      -7.594   5.420 -17.440  0.00  0.00    +0.000 HD
ENDBRANCH  20  21
ENDBRANCH  11  20
ENDBRANCH   1  15
BRANCH   5  23
ATOM     23  N6  ADN     0      -2.117   1.615  -9.078  0.00  0.00    +0.000 NA
ATOM     24 HN61 ADN     0      -1.404   0.965  -8.974  0.00  0.00    +0.000 HD
ATOM     25 HN62 ADN     0      -2.892   1.581  -8.496  0.00  0.00    +0.000 HD
ENDBRANCH   5  23
TORSDOF 6
ENDMDL
MODEL 11
REMARK VINA RESULT:      -6.3      5.308      8.089
REMARK  Name = ADN.pdb
REMARK  6 active torsions:
REMARK  status: ('A' for Active; 'I' for Inactive)
REMARK    1  A    between atoms: O5'_1  and  C5'_2
REMARK    2  A    between atoms: C5'_2  and  C4'_3
REMARK    3  A    between atoms: C3'_5  and  O3'_6
REMARK    4  A    between atoms: C2'_7  and  O2'_8
REMARK    5  A    between atoms: C1'_9  and  N9_10
REMARK    6  A    between atoms: C6_14  and  N6_15
REMARK                            x       y       z     vdW  Elec       q    Type
REMARK                         _______ _______ _______ _____ _____    ______ ____
ROOT
ATOM      1  N9  ADN     0      -2.799   4.854 -13.112  0.00  0.00    +0.000 N 
ATOM      2  C8  ADN     0      -1.662   5.557 -12.841  0.00  0.00    +0.000 A 
ATOM      3  N7  ADN     0      -1.159   5.169 -11.706  0.00  0.00    +0.000 NA
ATOM      4  C5  ADN     0      -1.941   4.198 -11.175  0.00  0.00    +0.000 A 
ATOM      5  C6  ADN     0      -1.892   3.419 -10.006  0.00  0.00    +0.000 C 
ATOM      6  N1  ADN     0      -2.852   2.525  -9.800  0.00  0.00    +0.000 NA
ATOM      7  C2  ADN     0      -3.830   2.360 -10.672  0.00  0.00    +0.000 C 
ATOM      8  N3  ADN     0      -3.913   3.062 -11.784  0.00  0.00    +0.000 N 
ATOM      9  C4  ADN     0      -2.998   3.980 -12.073  0.00  0.00    +0.000 A 
ATOM     10  H   ADN     0      -4.660   2.904 -12.405  0.00  0.00    +0.000 HD
ENDROOT
BRANCH   1  15
ATOM     11  C4' ADN     0      -4.299   6.463 -15.943  0.00  0.00    +0.000 C 
ATOM     12  O4' ADN     0      -3.171   6.084 -15.124  0.00  0.00    +0.000 OA
ATOM     13  C3' ADN     0      -5.513   6.406 -14.991  0.00  0.00    +0.000 C 
ATOM     14  C2' ADN     0      -5.076   5.420 -13.882  0.00  0.00    +0.000 C 
ATOM     15  C1' ADN     0      -3.648   5.003 -14.295  0.00  0.00    +0.000 C 
BRANCH  13  16
ATOM     16  O3' ADN     0      -6.665   5.910 -15.677  0.00  0.00    +0.000 OA
ATOM     17 HO3' ADN     0      -7.251   5.538 -15.004  0.00  0.00    +0.000 HD
ENDBRANCH  13  16
BRANCH  14  18
ATOM     18  O2' ADN     0      -5.946   4.288 -13.848  0.00  0.00    +0.000 OA
ATOM     19 HO2' ADN     0      -6.169   4.132 -12.920  0.00  0.00    +0.000 HD
ENDBRANCH  14  18
BRANCH  11  20
ATOM     20  C5' ADN     0      -4.111   7.881 -16.486  0.00  0.00    +0.000 C 
BRANCH  20  21
ATOM     21  O5' ADN     0      -3.837   8.773 -15.403  0.00  0.00    +0.000 OA
ATOM     22 HO5' ADN     0      -4.673   8.906 -14.934  0.00  0.00    +0.000 HD
ENDBRANCH  20  21
ENDBRANCH  11  20
ENDBRANCH   1  15
BRANCH   5  23
ATOM     23  N6  ADN     0      -0.872   3.586  -9.087  0.00  0.00    +0.000 NA
ATOM     24 HN61 ADN     0      -0.179   2.912  -9.004  0.00  0.00    +0.000 HD
ATOM     25 HN62 ADN     0      -0.846   4.378  -8.527  0.00  0.00    +0.000 HD
ENDBRANCH   5  23
TORSDOF 6
ENDMDL
MODEL 12
REMARK VINA RESULT:      -6.3      5.310      8.227
REMARK  Name = ADN.pdb
REMARK  6 active torsions:
REMARK  status: ('A' for Active; 'I' for Inactive)
REMARK    1  A    between atoms: O5'_1  and  C5'_2
REMARK    2  A    between atoms: C5'_2  and  C4'_3
REMARK    3  A    between atoms: C3'_5  and  O3'_6
REMARK    4  A    between atoms: C2'_7  and  O2'_8
REMARK    5  A    between atoms: C1'_9  and  N9_10
REMARK    6  A    between atoms: C6_14  and  N6_15
REMARK                            x       y       z     vdW  Elec       q    Type
REMARK                         _______ _______ _______ _____ _____    ______ ____
ROOT
ATOM      1  N9  ADN     0      -3.358   4.054 -12.795  0.00  0.00    +0.000 N 
ATOM      2  C8  ADN     0      -4.409   3.236 -12.505  0.00  0.00    +0.000 A 
ATOM      3  N7  ADN     0      -4.246   2.700 -11.330  0.00  0.00    +0.000 NA
ATOM      4  C5  ADN     0      -3.080   3.136 -10.795  0.00  0.00    +0.000 A 
ATOM      5  C6  ADN     0      -2.405   2.912  -9.583  0.00  0.00    +0.000 C 
ATOM      6  N1  ADN     0      -1.247   3.529  -9.380  0.00  0.00    +0.000 NA
ATOM      7  C2  ADN     0      -0.737   4.342 -10.288  0.00  0.00    +0.000 C 
ATOM      8  N3  ADN     0      -1.337   4.587 -11.434  0.00  0.00    +0.000 N 
ATOM      9  C4  ADN     0      -2.499   4.013 -11.725  0.00  0.00    +0.000 A 
ATOM     10  H   ADN     0      -0.920   5.201 -12.081  0.00  0.00    +0.000 HD
ENDROOT
BRANCH   1  15
ATOM     11  C4' ADN     0      -3.566   6.873 -15.000  0.00  0.00    +0.000 C 
ATOM     12  O4' ADN     0      -3.257   6.245 -13.736  0.00  0.00    +0.000 OA
ATOM     13  C3' ADN     0      -4.600   5.937 -15.661  0.00  0.00    +0.000 C 
ATOM     14  C2' ADN     0      -4.338   4.562 -15.004  0.00  0.00    +0.000 C 
ATOM     15  C1' ADN     0      -3.179   4.832 -14.021  0.00  0.00    +0.000 C 
BRANCH  13  16
ATOM     16  O3' ADN     0      -4.384   5.868 -17.072  0.00  0.00    +0.000 OA
ATOM     17 HO3' ADN     0      -3.455   6.089 -17.223  0.00  0.00    +0.000 HD
ENDBRANCH  13  16
BRANCH  14  18
ATOM     18  O2' ADN     0      -3.955   3.601 -15.990  0.00  0.00    +0.000 OA
ATOM     19 HO2' ADN     0      -4.515   2.825 -15.858  0.00  0.00    +0.000 HD
ENDBRANCH  14  18
BRANCH  11  20
ATOM     20  C5' ADN     0      -4.168   8.261 -14.772  0.00  0.00    +0.000 C 
BRANCH  20  21
ATOM     21  O5' ADN     0      -4.129   9.003 -15.992  0.00  0.00    +0.000 OA
ATOM     22 HO5' ADN     0      -3.204   9.243 -16.143  0.00  0.00    +0.000 HD
ENDBRANCH  20  21
ENDBRANCH  11  20
ENDBRANCH   1  15
BRANCH   5  23
ATOM     23  N6  ADN     0      -2.930   2.062  -8.627  0.00  0.00    +0.000 NA
ATOM     24 HN61 ADN     0      -2.697   1.120  -8.633  0.00  0.00    +0.000 HD
ATOM     25 HN62 ADN     0      -3.529   2.408  -7.946  0.00  0.00    +0.000 HD
ENDBRANCH   5  23
TORSDOF 6
ENDMDL
MODEL 13
REMARK VINA RESULT:      -6.3      3.309      5.916
REMARK  Name = ADN.pdb
REMARK  6 active torsions:
REMARK  status: ('A' for Active; 'I' for Inactive)
REMARK    1  A    between atoms: O5'_1  and  C5'_2
REMARK    2  A    between atoms: C5'_2  and  C4'_3
REMARK    3  A    between atoms: C3'_5  and  O3'_6
REMARK    4  A    between atoms: C2'_7  and  O2'_8
REMARK    5  A    between atoms: C1'_9  and  N9_10
REMARK    6  A    between atoms: C6_14  and  N6_15
REMARK                            x       y       z     vdW  Elec       q    Type
REMARK                         _______ _______ _______ _____ _____    ______ ____
ROOT
ATOM      1  N9  ADN     0      -1.682   0.596  -6.993  0.00  0.00    +0.000 N 
ATOM      2  C8  ADN     0      -0.392   0.234  -6.741  0.00  0.00    +0.000 A 
ATOM      3  N7  ADN     0      -0.363  -0.915  -6.131  0.00  0.00    +0.000 NA
ATOM      4  C5  ADN     0      -1.630  -1.360  -5.949  0.00  0.00    +0.000 A 
ATOM      5  C6  ADN     0      -2.200  -2.510  -5.376  0.00  0.00    +0.000 C 
ATOM      6  N1  ADN     0      -3.523  -2.627  -5.376  0.00  0.00    +0.000 NA
ATOM      7  C2  ADN     0      -4.292  -1.694  -5.906  0.00  0.00    +0.000 C 
ATOM      8  N3  ADN     0      -3.802  -0.604  -6.459  0.00  0.00    +0.000 N 
ATOM      9  C4  ADN     0      -2.490  -0.400  -6.505  0.00  0.00    +0.000 A 
ATOM     10  H   ADN     0      -4.414   0.065  -6.843  0.00  0.00    +0.000 HD
ENDROOT
BRANCH   1  15
ATOM     11  C4' ADN     0      -3.298   2.637  -9.458  0.00  0.00    +0.000 C 
ATOM     12  O4' ADN     0      -3.262   1.551  -8.507  0.00  0.00    +0.000 OA
ATOM     13  C3' ADN     0      -1.820   2.879  -9.834  0.00  0.00    +0.000 C 
ATOM     14  C2' ADN     0      -1.028   2.331  -8.624  0.00  0.00    +0.000 C 
ATOM     15  C1' ADN     0      -2.123   1.820  -7.662  0.00  0.00    +0.000 C 
BRANCH  13  16
ATOM     16  O3' ADN     0      -1.570   4.275 -10.008  0.00  0.00    +0.000 OA
ATOM     17 HO3' ADN     0      -0.628   4.413  -9.834  0.00  0.00    +0.000 HD
ENDBRANCH  13  16
BRANCH  14  18
ATOM     18  O2' ADN     0      -0.263   3.373  -8.014  0.00  0.00    +0.000 OA
ATOM     19 HO2' ADN     0       0.596   3.386  -8.458  0.00  0.00    +0.000 HD
ENDBRANCH  14  18
BRANCH  11  20
ATOM     20  C5' ADN     0      -4.107   2.237 -10.693  0.00  0.00    +0.000 C 
BRANCH  20  21
ATOM     21  O5' ADN     0      -3.792   3.117 -11.774  0.00  0.00    +0.000 OA
ATOM     22 HO5' ADN     0      -3.656   2.562 -12.555  0.00  0.00    +0.000 HD
ENDBRANCH  20  21
ENDBRANCH  11  20
ENDBRANCH   1  15
BRANCH   5  23
ATOM     23  N6  ADN     0      -1.403  -3.493  -4.818  0.00  0.00    +0.000 NA
ATOM     24 HN61 ADN     0      -0.615  -3.806  -5.291  0.00  0.00    +0.000 HD
ATOM     25 HN62 ADN     0      -1.627  -3.867  -3.951  0.00  0.00    +0.000 HD
ENDBRANCH   5  23
TORSDOF 6
ENDMDL
MODEL 14
REMARK VINA RESULT:      -6.2      4.232      6.088
REMARK  Name = ADN.pdb
REMARK  6 active torsions:
REMARK  status: ('A' for Active; 'I' for Inactive)
REMARK    1  A    between atoms: O5'_1  and  C5'_2
REMARK    2  A    between atoms: C5'_2  and  C4'_3
REMARK    3  A    between atoms: C3'_5  and  O3'_6
REMARK    4  A    between atoms: C2'_7  and  O2'_8
REMARK    5  A    between atoms: C1'_9  and  N9_10
REMARK    6  A    between atoms: C6_14  and  N6_15
REMARK                            x       y       z     vdW  Elec       q    Type
REMARK                         _______ _______ _______ _____ _____    ______ ____
ROOT
ATOM      1  N9  ADN     0      -3.322   5.683 -13.905  0.00  0.00    +0.000 N 
ATOM      2  C8  ADN     0      -3.687   6.973 -13.659  0.00  0.00    +0.000 A 
ATOM      3  N7  ADN     0      -4.467   7.404 -14.608  0.00  0.00    +0.000 NA
ATOM      4  C5  ADN     0      -4.648   6.420 -15.523  0.00  0.00    +0.000 A 
ATOM      5  C6  ADN     0      -5.376   6.307 -16.720  0.00  0.00    +0.000 C 
ATOM      6  N1  ADN     0      -5.333   5.155 -17.380  0.00  0.00    +0.000 NA
ATOM      7  C2  ADN     0      -4.630   4.134 -16.926  0.00  0.00    +0.000 C 
ATOM      8  N3  ADN     0      -3.938   4.192 -15.807  0.00  0.00    +0.000 N 
ATOM      9  C4  ADN     0      -3.921   5.304 -15.080  0.00  0.00    +0.000 A 
ATOM     10  H   ADN     0      -3.430   3.404 -15.508  0.00  0.00    +0.000 HD
ENDROOT
BRANCH   1  15
ATOM     11  C4' ADN     0      -2.414   3.441 -11.260  0.00  0.00    +0.000 C 
ATOM     12  O4' ADN     0      -3.227   3.848 -12.382  0.00  0.00    +0.000 OA
ATOM     13  C3' ADN     0      -1.797   4.751 -10.726  0.00  0.00    +0.000 C 
ATOM     14  C2' ADN     0      -1.821   5.703 -11.945  0.00  0.00    +0.000 C 
ATOM     15  C1' ADN     0      -2.453   4.854 -13.069  0.00  0.00    +0.000 C 
BRANCH  13  16
ATOM     16  O3' ADN     0      -0.454   4.531 -10.288  0.00  0.00    +0.000 OA
ATOM     17 HO3' ADN     0      -0.510   4.090  -9.429  0.00  0.00    +0.000 HD
ENDBRANCH  13  16
BRANCH  14  18
ATOM     18  O2' ADN     0      -0.494   6.101 -12.295  0.00  0.00    +0.000 OA
ATOM     19 HO2' ADN     0      -0.409   7.034 -12.057  0.00  0.00    +0.000 HD
ENDBRANCH  14  18
BRANCH  11  20
ATOM     20  C5' ADN     0      -3.280   2.780 -10.185  0.00  0.00    +0.000 C 
BRANCH  20  21
ATOM     21  O5' ADN     0      -2.645   2.916  -8.912  0.00  0.00    +0.000 OA
ATOM     22 HO5' ADN     0      -1.925   3.552  -9.026  0.00  0.00    +0.000 HD
ENDBRANCH  20  21
ENDBRANCH  11  20
ENDBRANCH   1  15
BRANCH   5  23
ATOM     23  N6  ADN     0      -6.115   7.372 -17.203  0.00  0.00    +0.000 NA
ATOM     24 HN61 ADN     0      -5.776   7.902 -17.942  0.00  0.00    +0.000 HD
ATOM     25 HN62 ADN     0      -6.974   7.587 -16.806  0.00  0.00    +0.000 HD
ENDBRANCH   5  23
TORSDOF 6
ENDMDL
MODEL 15
REMARK VINA RESULT:      -6.2      3.103      6.084
REMARK  Name = ADN.pdb
REMARK  6 active torsions:
REMARK  status: ('A' for Active; 'I' for Inactive)
REMARK    1  A    between atoms: O5'_1  and  C5'_2
REMARK    2  A    between atoms: C5'_2  and  C4'_3
REMARK    3  A    between atoms: C3'_5  and  O3'_6
REMARK    4  A    between atoms: C2'_7  and  O2'_8
REMARK    5  A    between atoms: C1'_9  and  N9_10
REMARK    6  A    between atoms: C6_14  and  N6_15
REMARK                            x       y       z     vdW  Elec       q    Type
REMARK                         _______ _______ _______ _____ _____    ______ ____
ROOT
ATOM      1  N9  ADN     0      -3.245   1.826  -9.176  0.00  0.00    +0.000 N 
ATOM      2  C8  ADN     0      -2.582   2.964  -8.826  0.00  0.00    +0.000 A 
ATOM      3  N7  ADN     0      -2.111   2.852  -7.618  0.00  0.00    +0.000 NA
ATOM      4  C5  ADN     0      -2.445   1.638  -7.116  0.00  0.00    +0.000 A 
ATOM      5  C6  ADN     0      -2.209   0.974  -5.900  0.00  0.00    +0.000 C 
ATOM      6  N1  ADN     0      -2.693  -0.253  -5.745  0.00  0.00    +0.000 NA
ATOM      7  C2  ADN     0      -3.376  -0.845  -6.708  0.00  0.00    +0.000 C 
ATOM      8  N3  ADN     0      -3.616  -0.264  -7.865  0.00  0.00    +0.000 N 
ATOM      9  C4  ADN     0      -3.171   0.964  -8.110  0.00  0.00    +0.000 A 
ATOM     10  H   ADN     0      -4.129  -0.744  -8.555  0.00  0.00    +0.000 HD
ENDROOT
BRANCH   1  15
ATOM     11  C4' ADN     0      -4.847   2.572 -12.295  0.00  0.00    +0.000 C 
ATOM     12  O4' ADN     0      -3.786   2.713 -11.325  0.00  0.00    +0.000 OA
ATOM     13  C3' ADN     0      -6.061   2.076 -11.481  0.00  0.00    +0.000 C 
ATOM     14  C2' ADN     0      -5.432   1.398 -10.241  0.00  0.00    +0.000 C 
ATOM     15  C1' ADN     0      -3.912   1.570 -10.453  0.00  0.00    +0.000 C 
BRANCH  13  16
ATOM     16  O3' ADN     0      -6.820   1.130 -12.238  0.00  0.00    +0.000 OA
ATOM     17 HO3' ADN     0      -6.461   0.256 -12.033  0.00  0.00    +0.000 HD
ENDBRANCH  13  16
BRANCH  14  18
ATOM     18  O2' ADN     0      -5.785   0.015 -10.194  0.00  0.00    +0.000 OA
ATOM     19 HO2' ADN     0      -4.963  -0.488 -10.276  0.00  0.00    +0.000 HD
ENDBRANCH  14  18
BRANCH  11  20
ATOM     20  C5' ADN     0      -5.155   3.921 -12.948  0.00  0.00    +0.000 C 
BRANCH  20  21
ATOM     21  O5' ADN     0      -6.095   3.733 -14.008  0.00  0.00    +0.000 OA
ATOM     22 HO5' ADN     0      -6.764   4.425 -13.912  0.00  0.00    +0.000 HD
ENDBRANCH  20  21
ENDBRANCH  11  20
ENDBRANCH   1  15
BRANCH   5  23
ATOM     23  N6  ADN     0      -1.496   1.586  -4.885  0.00  0.00    +0.000 NA
ATOM     24 HN61 ADN     0      -1.703   1.387  -3.958  0.00  0.00    +0.000 HD
ATOM     25 HN62 ADN     0      -0.785   2.211  -5.100  0.00  0.00    +0.000 HD
ENDBRANCH   5  23
TORSDOF 6
ENDMDL
MODEL 16
REMARK VINA RESULT:      -6.2      1.740      3.499
REMARK  Name = ADN.pdb
REMARK  6 active torsions:
REMARK  status: ('A' for Active; 'I' for Inactive)
REMARK    1  A    between atoms: O5'_1  and  C5'_2
REMARK    2  A    between atoms: C5'_2  and  C4'_3
REMARK    3  A    between atoms: C3'_5  and  O3'_6
REMARK    4  A    between atoms: C2'_7  and  O2'_8
REMARK    5  A    between atoms: C1'_9  and  N9_10
REMARK    6  A    between atoms: C6_14  and  N6_15
REMARK                            x       y       z     vdW  Elec       q    Type
REMARK                         _______ _______ _______ _____ _____    ______ ____
ROOT
ATOM      1  N9  ADN     0      -4.298   1.069  -9.031  0.00  0.00    +0.000 N 
ATOM      2  C8  ADN     0      -4.813  -0.180  -8.857  0.00  0.00    +0.000 A 
ATOM      3  N7  ADN     0      -5.544  -0.507  -9.884  0.00  0.00    +0.000 NA
ATOM      4  C5  ADN     0      -5.547   0.513 -10.776  0.00  0.00    +0.000 A 
ATOM      5  C6  ADN     0      -6.136   0.721 -12.036  0.00  0.00    +0.000 C 
ATOM      6  N1  ADN     0      -5.914   1.875 -12.654  0.00  0.00    +0.000 NA
ATOM      7  C2  ADN     0      -5.154   2.808 -12.110  0.00  0.00    +0.000 C 
ATOM      8  N3  ADN     0      -4.577   2.654 -10.936  0.00  0.00    +0.000 N 
ATOM      9  C4  ADN     0      -4.743   1.533 -10.243  0.00  0.00    +0.000 A 
ATOM     10  H   ADN     0      -4.018   3.377 -10.570  0.00  0.00    +0.000 HD
ENDROOT
BRANCH   1  15
ATOM     11  C4' ADN     0      -1.425   2.889  -7.897  0.00  0.00    +0.000 C 
ATOM     12  O4' ADN     0      -2.512   2.638  -8.814  0.00  0.00    +0.000 OA
ATOM     13  C3' ADN     0      -1.176   1.533  -7.202  0.00  0.00    +0.000 C 
ATOM     14  C2' ADN     0      -2.525   0.789  -7.334  0.00  0.00    +0.000 C 
ATOM     15  C1' ADN     0      -3.427   1.784  -8.096  0.00  0.00    +0.000 C 
BRANCH  13  16
ATOM     16  O3' ADN     0      -0.843   1.729  -5.826  0.00  0.00    +0.000 OA
ATOM     17 HO3' ADN     0      -1.636   1.516  -5.315  0.00  0.00    +0.000 HD
ENDBRANCH  13  16
BRANCH  14  18
ATOM     18  O2' ADN     0      -3.066   0.501  -6.043  0.00  0.00    +0.000 OA
ATOM     19 HO2' ADN     0      -2.579  -0.260  -5.699  0.00  0.00    +0.000 HD
ENDBRANCH  14  18
BRANCH  11  20
ATOM     20  C5' ADN     0      -0.176   3.337  -8.660  0.00  0.00    +0.000 C 
BRANCH  20  21
ATOM     21  O5' ADN     0      -0.424   3.261 -10.065  0.00  0.00    +0.000 OA
ATOM     22 HO5' ADN     0      -0.416   4.168 -10.399  0.00  0.00    +0.000 HD
ENDBRANCH  20  21
ENDBRANCH  11  20
ENDBRANCH   1  15
BRANCH   5  23
ATOM     23  N6  ADN     0      -6.934  -0.250 -12.614  0.00  0.00    +0.000 NA
ATOM     24 HN61 ADN     0      -6.611  -0.750 -13.379  0.00  0.00    +0.000 HD
ATOM     25 HN62 ADN     0      -7.815  -0.434 -12.251  0.00  0.00    +0.000 HD
ENDBRANCH   5  23
TORSDOF 6
ENDMDL
MODEL 17
REMARK VINA RESULT:      -6.1      1.270      2.167
REMARK  Name = ADN.pdb
REMARK  6 active torsions:
REMARK  status: ('A' for Active; 'I' for Inactive)
REMARK    1  A    between atoms: O5'_1  and  C5'_2
REMARK    2  A    between atoms: C5'_2  and  C4'_3
REMARK    3  A    between atoms: C3'_5  and  O3'_6
REMARK    4  A    between atoms: C2'_7  and  O2'_8
REMARK    5  A    between atoms: C1'_9  and  N9_10
REMARK    6  A    between atoms: C6_14  and  N6_15
REMARK                            x       y       z     vdW  Elec       q    Type
REMARK                         _______ _______ _______ _____ _____    ______ ____
ROOT
ATOM      1  N9  ADN     0      -3.550   1.969  -9.366  0.00  0.00    +0.000 N 
ATOM      2  C8  ADN     0      -2.583   2.840  -9.771  0.00  0.00    +0.000 A 
ATOM      3  N7  ADN     0      -2.863   3.296 -10.957  0.00  0.00    +0.000 NA
ATOM      4  C5  ADN     0      -4.022   2.744 -11.390  0.00  0.00    +0.000 A 
ATOM      5  C6  ADN     0      -4.799   2.864 -12.555  0.00  0.00    +0.000 C 
ATOM      6  N1  ADN     0      -5.921   2.159 -12.643  0.00  0.00    +0.000 NA
ATOM      7  C2  ADN     0      -6.308   1.365 -11.661  0.00  0.00    +0.000 C 
ATOM      8  N3  ADN     0      -5.616   1.226 -10.550  0.00  0.00    +0.000 N 
ATOM      9  C4  ADN     0      -4.480   1.892 -10.372  0.00  0.00    +0.000 A 
ATOM     10  H   ADN     0      -5.944   0.623  -9.844  0.00  0.00    +0.000 HD
ENDROOT
BRANCH   1  15
ATOM     11  C4' ADN     0      -2.295   0.362  -6.418  0.00  0.00    +0.000 C 
ATOM     12  O4' ADN     0      -2.364   1.454  -7.359  0.00  0.00    +0.000 OA
ATOM     13  C3' ADN     0      -2.783  -0.871  -7.209  0.00  0.00    +0.000 C 
ATOM     14  C2' ADN     0      -3.658  -0.272  -8.335  0.00  0.00    +0.000 C 
ATOM     15  C1' ADN     0      -3.591   1.251  -8.092  0.00  0.00    +0.000 C 
BRANCH  13  16
ATOM     16  O3' ADN     0      -3.561  -1.728  -6.371  0.00  0.00    +0.000 OA
ATOM     17 HO3' ADN     0      -3.321  -2.636  -6.602  0.00  0.00    +0.000 HD
ENDBRANCH  13  16
BRANCH  14  18
ATOM     18  O2' ADN     0      -5.002  -0.745  -8.228  0.00  0.00    +0.000 OA
ATOM     19 HO2' ADN     0      -5.286  -0.581  -7.318  0.00  0.00    +0.000 HD
ENDBRANCH  14  18
BRANCH  11  20
ATOM     20  C5' ADN     0      -0.855   0.157  -5.943  0.00  0.00    +0.000 C 
BRANCH  20  21
ATOM     21  O5' ADN     0      -0.478  -1.207  -6.138  0.00  0.00    +0.000 OA
ATOM     22 HO5' ADN     0      -0.958  -1.726  -5.478  0.00  0.00    +0.000 HD
ENDBRANCH  20  21
ENDBRANCH  11  20
ENDBRANCH   1  15
BRANCH   5  23
ATOM     23  N6  ADN     0      -4.401   3.693 -13.589  0.00  0.00    +0.000 NA
ATOM     24 HN61 ADN     0      -4.982   3.827 -14.354  0.00  0.00    +0.000 HD
ATOM     25 HN62 ADN     0      -3.543   4.144 -13.547  0.00  0.00    +0.000 HD
ENDBRANCH   5  23
TORSDOF 6
ENDMDL
MODEL 18
REMARK VINA RESULT:      -6.1      5.160      7.741
REMARK  Name = ADN.pdb
REMARK  6 active torsions:
REMARK  status: ('A' for Active; 'I' for Inactive)
REMARK    1  A    between atoms: O5'_1  and  C5'_2
REMARK    2  A    between atoms: C5'_2  and  C4'_3
REMARK    3  A    between atoms: C3'_5  and  O3'_6
REMARK    4  A    between atoms: C2'_7  and  O2'_8
REMARK    5  A    between atoms: C1'_9  and  N9_10
REMARK    6  A    between atoms: C6_14  and  N6_15
REMARK                            x       y       z     vdW  Elec       q    Type
REMARK                         _______ _______ _______ _____ _____    ______ ____
ROOT
ATOM      1  N9  ADN     0      -2.916   4.931 -12.725  0.00  0.00    +0.000 N 
ATOM      2  C8  ADN     0      -1.655   5.441 -12.639  0.00  0.00    +0.000 A 
ATOM      3  N7  ADN     0      -0.973   4.793 -11.740  0.00  0.00    +0.000 NA
ATOM      4  C5  ADN     0      -1.753   3.831 -11.190  0.00  0.00    +0.000 A 
ATOM      5  C6  ADN     0      -1.561   2.845 -10.206  0.00  0.00    +0.000 C 
ATOM      6  N1  ADN     0      -2.574   2.040  -9.911  0.00  0.00    +0.000 NA
ATOM      7  C2  ADN     0      -3.737   2.150 -10.526  0.00  0.00    +0.000 C 
ATOM      8  N3  ADN     0      -3.961   3.053 -11.458  0.00  0.00    +0.000 N 
ATOM      9  C4  ADN     0      -3.006   3.904 -11.819  0.00  0.00    +0.000 A 
ATOM     10  H   ADN     0      -4.844   3.098 -11.891  0.00  0.00    +0.000 HD
ENDROOT
BRANCH   1  15
ATOM     11  C4' ADN     0      -4.982   5.031 -15.653  0.00  0.00    +0.000 C 
ATOM     12  O4' ADN     0      -4.337   4.352 -14.554  0.00  0.00    +0.000 OA
ATOM     13  C3' ADN     0      -4.146   6.310 -15.870  0.00  0.00    +0.000 C 
ATOM     14  C2' ADN     0      -3.471   6.556 -14.500  0.00  0.00    +0.000 C 
ATOM     15  C1' ADN     0      -3.978   5.392 -13.620  0.00  0.00    +0.000 C 
BRANCH  13  16
ATOM     16  O3' ADN     0      -4.992   7.409 -16.216  0.00  0.00    +0.000 OA
ATOM     17 HO3' ADN     0      -4.842   8.096 -15.553  0.00  0.00    +0.000 HD
ENDBRANCH  13  16
BRANCH  14  18
ATOM     18  O2' ADN     0      -3.878   7.814 -13.960  0.00  0.00    +0.000 OA
ATOM     19 HO2' ADN     0      -4.767   7.991 -14.298  0.00  0.00    +0.000 HD
ENDBRANCH  14  18
BRANCH  11  20
ATOM     20  C5' ADN     0      -4.957   4.156 -16.908  0.00  0.00    +0.000 C 
BRANCH  20  21
ATOM     21  O5' ADN     0      -3.748   3.396 -16.935  0.00  0.00    +0.000 OA
ATOM     22 HO5' ADN     0      -3.152   3.796 -16.286  0.00  0.00    +0.000 HD
ENDBRANCH  20  21
ENDBRANCH  11  20
ENDBRANCH   1  15
BRANCH   5  23
ATOM     23  N6  ADN     0      -0.346   2.722  -9.556  0.00  0.00    +0.000 NA
ATOM     24 HN61 ADN     0      -0.207   3.159  -8.701  0.00  0.00    +0.000 HD
ATOM     25 HN62 ADN     0       0.366   2.196  -9.952  0.00  0.00    +0.000 HD
ENDBRANCH   5  23
TORSDOF 6
ENDMDL
MODEL 19
REMARK VINA RESULT:      -6.0      5.961      8.727
REMARK  Name = ADN.pdb
REMARK  6 active torsions:
REMARK  status: ('A' for Active; 'I' for Inactive)
REMARK    1  A    between atoms: O5'_1  and  C5'_2
REMARK    2  A    between atoms: C5'_2  and  C4'_3
REMARK    3  A    between atoms: C3'_5  and  O3'_6
REMARK    4  A    between atoms: C2'_7  and  O2'_8
REMARK    5  A    between atoms: C1'_9  and  N9_10
REMARK    6  A    between atoms: C6_14  and  N6_15
REMARK                            x       y       z     vdW  Elec       q    Type
REMARK                         _______ _______ _______ _____ _____    ______ ____
ROOT
ATOM      1  N9  ADN     0      -4.444   4.067 -13.744  0.00  0.00    +0.000 N 
ATOM      2  C8  ADN     0      -5.002   3.086 -12.980  0.00  0.00    +0.000 A 
ATOM      3  N7  ADN     0      -4.288   2.895 -11.909  0.00  0.00    +0.000 NA
ATOM      4  C5  ADN     0      -3.226   3.737 -11.919  0.00  0.00    +0.000 A 
ATOM      5  C6  ADN     0      -2.152   3.983 -11.047  0.00  0.00    +0.000 C 
ATOM      6  N1  ADN     0      -1.269   4.918 -11.379  0.00  0.00    +0.000 NA
ATOM      7  C2  ADN     0      -1.393   5.609 -12.497  0.00  0.00    +0.000 C 
ATOM      8  N3  ADN     0      -2.386   5.418 -13.341  0.00  0.00    +0.000 N 
ATOM      9  C4  ADN     0      -3.317   4.503 -13.093  0.00  0.00    +0.000 A 
ATOM     10  H   ADN     0      -2.438   5.957 -14.162  0.00  0.00    +0.000 HD
ENDROOT
BRANCH   1  15
ATOM     11  C4' ADN     0      -4.906   6.342 -16.475  0.00  0.00    +0.000 C 
ATOM     12  O4' ADN     0      -4.094   5.605 -15.536  0.00  0.00    +0.000 OA
ATOM     13  C3' ADN     0      -6.291   6.446 -15.801  0.00  0.00    +0.000 C 
ATOM     14  C2' ADN     0      -6.325   5.248 -14.823  0.00  0.00    +0.000 C 
ATOM     15  C1' ADN     0      -4.954   4.566 -15.021  0.00  0.00    +0.000 C 
BRANCH  13  16
ATOM     16  O3' ADN     0      -7.332   6.329 -16.773  0.00  0.00    +0.000 OA
ATOM     17 HO3' ADN     0      -6.961   6.624 -17.616  0.00  0.00    +0.000 HD
ENDBRANCH  13  16
BRANCH  14  18
ATOM     18  O2' ADN     0      -7.389   4.356 -15.161  0.00  0.00    +0.000 OA
ATOM     19 HO2' ADN     0      -7.471   4.370 -16.124  0.00  0.00    +0.000 HD
ENDBRANCH  14  18
BRANCH  11  20
ATOM     20  C5' ADN     0      -4.319   7.735 -16.709  0.00  0.00    +0.000 C 
BRANCH  20  21
ATOM     21  O5' ADN     0      -3.801   8.247 -15.479  0.00  0.00    +0.000 OA
ATOM     22 HO5' ADN     0      -4.119   7.661 -14.778  0.00  0.00    +0.000 HD
ENDBRANCH  20  21
ENDBRANCH  11  20
ENDBRANCH   1  15
BRANCH   5  23
ATOM     23  N6  ADN     0      -2.013   3.264  -9.874  0.00  0.00    +0.000 NA
ATOM     24 HN61 ADN     0      -1.845   3.726  -9.038  0.00  0.00    +0.000 HD
ATOM     25 HN62 ADN     0      -2.089   2.296  -9.885  0.00  0.00    +0.000 HD
ENDBRANCH   5  23
TORSDOF 6
ENDMDL
MODEL 20
REMARK VINA RESULT:      -5.9      8.908     11.029
REMARK  Name = ADN.pdb
REMARK  6 active torsions:
REMARK  status: ('A' for Active; 'I' for Inactive)
REMARK    1  A    between atoms: O5'_1  and  C5'_2
REMARK    2  A    between atoms: C5'_2  and  C4'_3
REMARK    3  A    between atoms: C3'_5  and  O3'_6
REMARK    4  A    between atoms: C2'_7  and  O2'_8
REMARK    5  A    between atoms: C1'_9  and  N9_10
REMARK    6  A    between atoms: C6_14  and  N6_15
REMARK                            x       y       z     vdW  Elec       q    Type
REMARK                         _______ _______ _______ _____ _____    ______ ____
ROOT
ATOM      1  N9  ADN     0      -5.625   5.345 -17.217  0.00  0.00    +0.000 N 
ATOM      2  C8  ADN     0      -5.023   4.134 -17.393  0.00  0.00    +0.000 A 
ATOM      3  N7  ADN     0      -4.006   4.021 -16.588  0.00  0.00    +0.000 NA
ATOM      4  C5  ADN     0      -3.888   5.152 -15.851  0.00  0.00    +0.000 A 
ATOM      5  C6  ADN     0      -3.010   5.587 -14.843  0.00  0.00    +0.000 C 
ATOM      6  N1  ADN     0      -3.198   6.792 -14.317  0.00  0.00    +0.000 NA
ATOM      7  C2  ADN     0      -4.187   7.567 -14.721  0.00  0.00    +0.000 C 
ATOM      8  N3  ADN     0      -5.037   7.200 -15.657  0.00  0.00    +0.000 N 
ATOM      9  C4  ADN     0      -4.928   6.011 -16.241  0.00  0.00    +0.000 A 
ATOM     10  H   ADN     0      -5.761   7.811 -15.926  0.00  0.00    +0.000 HD
ENDROOT
BRANCH   1  15
ATOM     11  C4' ADN     0      -8.888   6.756 -17.676  0.00  0.00    +0.000 C 
ATOM     12  O4' ADN     0      -7.565   6.729 -17.097  0.00  0.00    +0.000 OA
ATOM     13  C3' ADN     0      -9.167   5.294 -18.085  0.00  0.00    +0.000 C 
ATOM     14  C2' ADN     0      -7.759   4.677 -18.263  0.00  0.00    +0.000 C 
ATOM     15  C1' ADN     0      -6.798   5.841 -17.937  0.00  0.00    +0.000 C 
BRANCH  13  16
ATOM     16  O3' ADN     0      -9.894   5.248 -19.315  0.00  0.00    +0.000 OA
ATOM     17 HO3' ADN     0      -9.617   6.016 -19.832  0.00  0.00    +0.000 HD
ENDBRANCH  13  16
BRANCH  14  18
ATOM     18  O2' ADN     0      -7.576   4.230 -19.608  0.00  0.00    +0.000 OA
ATOM     19 HO2' ADN     0      -8.454   4.181 -20.010  0.00  0.00    +0.000 HD
ENDBRANCH  14  18
BRANCH  11  20
ATOM     20  C5' ADN     0      -9.913   7.227 -16.642  0.00  0.00    +0.000 C 
BRANCH  20  21
ATOM     21  O5' ADN     0     -11.228   6.882 -17.084  0.00  0.00    +0.000 OA
ATOM     22 HO5' ADN     0     -11.707   7.713 -17.207  0.00  0.00    +0.000 HD
ENDBRANCH  20  21
ENDBRANCH  11  20
ENDBRANCH   1  15
BRANCH   5  23
ATOM     23  N6  ADN     0      -1.970   4.782 -14.414  0.00  0.00    +0.000 NA
ATOM     24 HN61 ADN     0      -1.308   4.465 -15.049  0.00  0.00    +0.000 HD
ATOM     25 HN62 ADN     0      -1.900   4.537 -13.478  0.00  0.00    +0.000 HD
ENDBRANCH   5  23
TORSDOF 6
ENDMDL
