REMARK VINA RESULT:      -6.3      4.963      8.654
REMARK  Name = NEC.pdb
REMARK  7 active torsions:
REMARK  status: ('A' for Active; 'I' for Inactive)
REMARK    1  A    between atoms: C5'_1  and  C4'_6
REMARK    2  A    between atoms: N5'_3  and  C51_4
REMARK    3  A    between atoms: C51_4  and  C52_5
REMARK    4  A    between atoms: C3'_8  and  O3'_9
REMARK    5  A    between atoms: C2'_10  and  O2'_11
REMARK    6  A    between atoms: C1'_12  and  N9_13
REMARK    7  A    between atoms: C6_17  and  N6_18
REMARK                            x       y       z     vdW  Elec       q    Type
REMARK                         _______ _______ _______ _____ _____    ______ ____
ROOT
ATOM      1  C4' NEC     0      -4.608   5.446 -14.895  0.00  0.00    +0.000 C 
ATOM      2  O4' NEC     0      -5.327   4.868 -13.786  0.00  0.00    +0.000 OA
ATOM      3  C3' NEC     0      -3.404   4.489 -15.087  0.00  0.00    +0.000 C 
ATOM      4  C2' NEC     0      -3.058   4.109 -13.626  0.00  0.00    +0.000 C 
ATOM      5  C1' NEC     0      -4.347   4.415 -12.840  0.00  0.00    +0.000 C 
ENDROOT
BRANCH   5   6
ATOM      6  N9  NEC     0      -4.823   3.204 -12.169  0.00  0.00    +0.000 N 
ATOM      7  C8  NEC     0      -5.916   2.468 -12.515  0.00  0.00    +0.000 A 
ATOM      8  N7  NEC     0      -6.047   1.457 -11.704  0.00  0.00    +0.000 NA
ATOM      9  C5  NEC     0      -5.048   1.481 -10.790  0.00  0.00    +0.000 A 
ATOM     10  C6  NEC     0      -4.685   0.669  -9.702  0.00  0.00    +0.000 C 
ATOM     11  N1  NEC     0      -3.609   0.998  -8.998  0.00  0.00    +0.000 NA
ATOM     12  C2  NEC     0      -2.890   2.061  -9.305  0.00  0.00    +0.000 C 
ATOM     13  N3  NEC     0      -3.192   2.851 -10.315  0.00  0.00    +0.000 N 
ATOM     14  C4  NEC     0      -4.249   2.597 -11.081  0.00  0.00    +0.000 A 
ATOM     15  H   NEC     0      -2.629   3.636 -10.506  0.00  0.00    +0.000 HD
BRANCH  10  16
ATOM     16  N6  NEC     0      -5.432  -0.449  -9.372  0.00  0.00    +0.000 NA
ATOM     17 HN61 NEC     0      -6.084  -0.800  -9.999  0.00  0.00    +0.000 HD
ATOM     18 HN62 NEC     0      -5.303  -0.882  -8.514  0.00  0.00    +0.000 HD
ENDBRANCH  10  16
ENDBRANCH   5   6
BRANCH   1  19
ATOM     19  C5' NEC     0      -5.468   5.471 -16.132  0.00  0.00    +0.000 C 
ATOM     20  O5' NEC     0      -6.677   5.469 -16.029  0.00  0.00    +0.000 OA
ATOM     21  N5' NEC     0      -4.895   5.495 -17.352  0.00  0.00    +0.000 N 
ATOM     22  HN5 NEC     0      -3.929   5.497 -17.433  0.00  0.00    +0.000 HD
BRANCH  21  23
ATOM     23  C51 NEC     0      -5.732   5.520 -18.553  0.00  0.00    +0.000 C 
ATOM     24  C52 NEC     0      -5.710   4.143 -19.219  0.00  0.00    +0.000 C 
ENDBRANCH  21  23
ENDBRANCH   1  19
BRANCH   3  25
ATOM     25  O3' NEC     0      -2.308   5.159 -15.714  0.00  0.00    +0.000 OA
ATOM     26 HO3' NEC     0      -1.543   5.049 -15.131  0.00  0.00    +0.000 HD
ENDBRANCH   3  25
BRANCH   4  27
ATOM     27  O2' NEC     0      -1.976   4.909 -13.144  0.00  0.00    +0.000 OA
ATOM     28 HO2' NEC     0      -1.823   5.599 -13.804  0.00  0.00    +0.000 HD
ENDBRANCH   4  27
TORSDOF 6
