REMARK VINA RESULT:      -7.7      0.921      2.076
REMARK  Name = NEC.pdb
REMARK  7 active torsions:
REMARK  status: ('A' for Active; 'I' for Inactive)
REMARK    1  A    between atoms: C5'_1  and  C4'_6
REMARK    2  A    between atoms: N5'_3  and  C51_4
REMARK    3  A    between atoms: C51_4  and  C52_5
REMARK    4  A    between atoms: C3'_8  and  O3'_9
REMARK    5  A    between atoms: C2'_10  and  O2'_11
REMARK    6  A    between atoms: C1'_12  and  N9_13
REMARK    7  A    between atoms: C6_17  and  N6_18
REMARK                            x       y       z     vdW  Elec       q    Type
REMARK                         _______ _______ _______ _____ _____    ______ ____
ROOT
ATOM      1  C4' NEC     0      -1.908  -0.133  -6.506  0.00  0.00    +0.000 C 
ATOM      2  O4' NEC     0      -2.295  -0.133  -7.896  0.00  0.00    +0.000 OA
ATOM      3  C3' NEC     0      -2.372   1.255  -5.998  0.00  0.00    +0.000 C 
ATOM      4  C2' NEC     0      -2.085   2.160  -7.222  0.00  0.00    +0.000 C 
ATOM      5  C1' NEC     0      -2.017   1.180  -8.409  0.00  0.00    +0.000 C 
ENDROOT
BRANCH   5   6
ATOM      6  N9  NEC     0      -3.016   1.544  -9.416  0.00  0.00    +0.000 N 
ATOM      7  C8  NEC     0      -4.252   0.990  -9.562  0.00  0.00    +0.000 A 
ATOM      8  N7  NEC     0      -4.877   1.551 -10.558  0.00  0.00    +0.000 NA
ATOM      9  C5  NEC     0      -4.082   2.498 -11.112  0.00  0.00    +0.000 A 
ATOM     10  C6  NEC     0      -4.217   3.399 -12.181  0.00  0.00    +0.000 C 
ATOM     11  N1  NEC     0      -3.205   4.213 -12.455  0.00  0.00    +0.000 NA
ATOM     12  C2  NEC     0      -2.093   4.183 -11.745  0.00  0.00    +0.000 C 
ATOM     13  N3  NEC     0      -1.921   3.356 -10.735  0.00  0.00    +0.000 N 
ATOM     14  C4  NEC     0      -2.882   2.508 -10.383  0.00  0.00    +0.000 A 
ATOM     15  H   NEC     0      -1.073   3.365 -10.236  0.00  0.00    +0.000 HD
BRANCH  10  16
ATOM     16  N6  NEC     0      -5.380   3.438 -12.931  0.00  0.00    +0.000 NA
ATOM     17 HN61 NEC     0      -6.219   3.687 -12.513  0.00  0.00    +0.000 HD
ATOM     18 HN62 NEC     0      -5.355   3.219 -13.876  0.00  0.00    +0.000 HD
ENDBRANCH  10  16
ENDBRANCH   5   6
BRANCH   1  19
ATOM     19  C5' NEC     0      -2.613  -1.235  -5.758  0.00  0.00    +0.000 C 
ATOM     20  O5' NEC     0      -3.819  -1.344  -5.836  0.00  0.00    +0.000 OA
ATOM     21  N5' NEC     0      -1.905  -2.099  -5.005  0.00  0.00    +0.000 N 
ATOM     22  HN5 NEC     0      -0.942  -2.012  -4.944  0.00  0.00    +0.000 HD
BRANCH  21  23
ATOM     23  C51 NEC     0      -2.592  -3.171  -4.280  0.00  0.00    +0.000 C 
ATOM     24  C52 NEC     0      -1.787  -3.539  -3.032  0.00  0.00    +0.000 C 
ENDBRANCH  21  23
ENDBRANCH   1  19
BRANCH   3  25
ATOM     25  O3' NEC     0      -1.606   1.672  -4.865  0.00  0.00    +0.000 OA
ATOM     26 HO3' NEC     0      -2.193   1.625  -4.098  0.00  0.00    +0.000 HD
ENDBRANCH   3  25
BRANCH   4  27
ATOM     27  O2' NEC     0      -0.837   2.838  -7.062  0.00  0.00    +0.000 OA
ATOM     28 HO2' NEC     0      -0.868   3.280  -6.202  0.00  0.00    +0.000 HD
ENDBRANCH   4  27
TORSDOF 6
