REMARK VINA RESULT:      -7.0      1.312      1.504
REMARK  Name = NEC.pdb
REMARK  7 active torsions:
REMARK  status: ('A' for Active; 'I' for Inactive)
REMARK    1  A    between atoms: C5'_1  and  C4'_6
REMARK    2  A    between atoms: N5'_3  and  C51_4
REMARK    3  A    between atoms: C51_4  and  C52_5
REMARK    4  A    between atoms: C3'_8  and  O3'_9
REMARK    5  A    between atoms: C2'_10  and  O2'_11
REMARK    6  A    between atoms: C1'_12  and  N9_13
REMARK    7  A    between atoms: C6_17  and  N6_18
REMARK                            x       y       z     vdW  Elec       q    Type
REMARK                         _______ _______ _______ _____ _____    ______ ____
ROOT
ATOM      1  C4' NEC     0      -1.909   0.871  -7.825  0.00  0.00    +0.000 C 
ATOM      2  O4' NEC     0      -2.035   1.078  -9.248  0.00  0.00    +0.000 OA
ATOM      3  C3' NEC     0      -2.378   2.217  -7.217  0.00  0.00    +0.000 C 
ATOM      4  C2' NEC     0      -1.820   3.242  -8.235  0.00  0.00    +0.000 C 
ATOM      5  C1' NEC     0      -1.593   2.418  -9.517  0.00  0.00    +0.000 C 
ENDROOT
BRANCH   5   6
ATOM      6  N9  NEC     0      -2.368   2.987 -10.622  0.00  0.00    +0.000 N 
ATOM      7  C8  NEC     0      -1.971   3.992 -11.451  0.00  0.00    +0.000 A 
ATOM      8  N7  NEC     0      -2.906   4.247 -12.321  0.00  0.00    +0.000 NA
ATOM      9  C5  NEC     0      -3.959   3.422 -12.104  0.00  0.00    +0.000 A 
ATOM     10  C6  NEC     0      -5.214   3.243 -12.711  0.00  0.00    +0.000 C 
ATOM     11  N1  NEC     0      -6.024   2.310 -12.225  0.00  0.00    +0.000 NA
ATOM     12  C2  NEC     0      -5.668   1.565 -11.195  0.00  0.00    +0.000 C 
ATOM     13  N3  NEC     0      -4.503   1.698 -10.596  0.00  0.00    +0.000 N 
ATOM     14  C4  NEC     0      -3.624   2.601 -11.017  0.00  0.00    +0.000 A 
ATOM     15  H   NEC     0      -4.281   1.122  -9.828  0.00  0.00    +0.000 HD
BRANCH  10  16
ATOM     16  N6  NEC     0      -5.596   4.019 -13.791  0.00  0.00    +0.000 NA
ATOM     17 HN61 NEC     0      -5.001   4.706 -14.130  0.00  0.00    +0.000 HD
ATOM     18 HN62 NEC     0      -6.458   3.875 -14.211  0.00  0.00    +0.000 HD
ENDBRANCH  10  16
ENDBRANCH   5   6
BRANCH   1  19
ATOM     19  C5' NEC     0      -2.802  -0.256  -7.372  0.00  0.00    +0.000 C 
ATOM     20  O5' NEC     0      -3.488  -0.847  -8.179  0.00  0.00    +0.000 OA
ATOM     21  N5' NEC     0      -2.836  -0.606  -6.071  0.00  0.00    +0.000 N 
ATOM     22  HN5 NEC     0      -2.288  -0.134  -5.427  0.00  0.00    +0.000 HD
BRANCH  21  23
ATOM     23  C51 NEC     0      -3.703  -1.702  -5.632  0.00  0.00    +0.000 C 
ATOM     24  C52 NEC     0      -2.850  -2.810  -5.011  0.00  0.00    +0.000 C 
ENDBRANCH  21  23
ENDBRANCH   1  19
BRANCH   3  25
ATOM     25  O3' NEC     0      -1.810   2.423  -5.922  0.00  0.00    +0.000 OA
ATOM     26 HO3' NEC     0      -1.760   3.380  -5.787  0.00  0.00    +0.000 HD
ENDBRANCH   3  25
BRANCH   4  27
ATOM     27  O2' NEC     0      -0.586   3.791  -7.768  0.00  0.00    +0.000 OA
ATOM     28 HO2' NEC     0      -0.050   3.048  -7.458  0.00  0.00    +0.000 HD
ENDBRANCH   4  27
TORSDOF 6
