REMARK VINA RESULT:      -8.9      2.221      2.782
REMARK  Name = NGI.pdb
REMARK  14 active torsions:
REMARK  status: ('A' for Active; 'I' for Inactive)
REMARK    1  A    between atoms: C1_1  and  C2_4
REMARK    2  A    between atoms: N1_2  and  C2_4
REMARK    3  A    between atoms: N2_5  and  C5_13
REMARK    4  A    between atoms: C3_7  and  C4_10
REMARK    5  A    between atoms: O3_9  and  C6_16
REMARK    6  A    between atoms: N4_11  and  C10_23
REMARK    7  A    between atoms: O4_12  and  C7_19
REMARK    8  A    between atoms: O5_15  and  C20_33
REMARK    9  A    between atoms: N6_17  and  C12_25
REMARK   10  A    between atoms: C12_25  and  C13_26
REMARK   11  A    between atoms: C13_26  and  C14_27
REMARK   12  A    between atoms: C17_30  and  C18_31
REMARK   13  A    between atoms: C18_31  and  C19_32
REMARK   14  A    between atoms: C19_32  and  C20_33
REMARK                            x       y       z     vdW  Elec       q    Type
REMARK                         _______ _______ _______ _____ _____    ______ ____
ROOT
ATOM      1  N2  NGI     0      -5.464   6.149 -16.354  0.00  0.00    +0.000 N 
ATOM      2  N3  NGI     0      -3.483   6.936 -15.886  0.00  0.00    +0.000 NA
ATOM      3  N5  NGI     0      -3.633   4.510 -13.130  0.00  0.00    +0.000 NA
ATOM      4  N6  NGI     0      -5.396   3.052 -12.660  0.00  0.00    +0.000 N 
ATOM      5  N7  NGI     0      -5.524   4.510 -14.475  0.00  0.00    +0.000 N 
ATOM      6  C8  NGI     0      -4.489   7.036 -16.705  0.00  0.00    +0.000 A 
ATOM      7  C9  NGI     0      -3.751   5.988 -14.956  0.00  0.00    +0.000 A 
ATOM      8  C10 NGI     0      -3.055   5.464 -13.851  0.00  0.00    +0.000 C 
ATOM      9  C11 NGI     0      -4.836   4.046 -13.445  0.00  0.00    +0.000 C 
ATOM     10  C23 NGI     0      -5.023   5.469 -15.247  0.00  0.00    +0.000 A 
ATOM     11  HN6 NGI     0      -6.273   2.700 -12.875  0.00  0.00    +0.000 HD
ATOM     12  H   NGI     0      -6.416   4.141 -14.672  0.00  0.00    +0.000 HD
ENDROOT
BRANCH   1  15
ATOM     13  O2  NGI     0      -6.885   6.900 -18.122  0.00  0.00    +0.000 OA
ATOM     14  C4  NGI     0      -8.303   6.977 -18.382  0.00  0.00    +0.000 C 
ATOM     15  C5  NGI     0      -6.748   5.961 -17.032  0.00  0.00    +0.000 C 
ATOM     16  C6  NGI     0      -7.916   6.293 -16.076  0.00  0.00    +0.000 C 
ATOM     17  C7  NGI     0      -8.962   6.977 -16.984  0.00  0.00    +0.000 C 
BRANCH  14  20
ATOM     18  N1  NGI     0      -9.893   8.729 -19.104  0.00  0.00    +0.000 N 
ATOM     19  O1  NGI     0      -7.765   8.844 -19.722  0.00  0.00    +0.000 OA
ATOM     20  C3  NGI     0      -8.634   8.250 -19.117  0.00  0.00    +0.000 C 
ATOM     21  HN1 NGI     0     -10.588   8.254 -18.620  0.00  0.00    +0.000 HD
BRANCH  18  23
ATOM     22  C1  NGI     0     -10.549  11.066 -18.810  0.00  0.00    +0.000 C 
ATOM     23  C2  NGI     0     -10.213   9.967 -19.819  0.00  0.00    +0.000 C 
ENDBRANCH  18  23
ENDBRANCH  14  20
BRANCH  16  24
ATOM     24  O3  NGI     0      -8.452   5.097 -15.507  0.00  0.00    +0.000 OA
ATOM     25  HO3 NGI     0      -8.460   5.091 -14.540  0.00  0.00    +0.000 HD
ENDBRANCH  16  24
BRANCH  17  26
ATOM     26  O4  NGI     0     -10.177   6.225 -17.003  0.00  0.00    +0.000 OA
ATOM     27  HO4 NGI     0     -10.919   6.665 -16.567  0.00  0.00    +0.000 HD
ENDBRANCH  17  26
ENDBRANCH   1  15
BRANCH   8  28
ATOM     28  N4  NGI     0      -1.795   5.931 -13.525  0.00  0.00    +0.000 NA
ATOM     29  HN4 NGI     0      -1.410   6.672 -14.020  0.00  0.00    +0.000 HD
ATOM     30 HN4A NGI     0      -1.296   5.520 -12.803  0.00  0.00    +0.000 HD
ENDBRANCH   8  28
BRANCH   4  31
ATOM     31  C12 NGI     0      -4.661   2.530 -11.505  0.00  0.00    +0.000 C 
BRANCH  31  32
ATOM     32  C13 NGI     0      -5.416   1.337 -10.916  0.00  0.00    +0.000 C 
BRANCH  32  33
ATOM     33  C14 NGI     0      -4.640   0.774  -9.754  0.00  0.00    +0.000 A 
ATOM     34  C15 NGI     0      -3.396   1.288  -9.440  0.00  0.00    +0.000 A 
ATOM     35  C16 NGI     0      -2.683   0.772  -8.374  0.00  0.00    +0.000 A 
ATOM     36  C17 NGI     0      -3.215  -0.260  -7.622  0.00  0.00    +0.000 A 
ATOM     37  C21 NGI     0      -4.458  -0.774  -7.936  0.00  0.00    +0.000 A 
ATOM     38  C22 NGI     0      -5.174  -0.254  -8.998  0.00  0.00    +0.000 A 
BRANCH  36  39
ATOM     39  C18 NGI     0      -2.437  -0.822  -6.460  0.00  0.00    +0.000 C 
BRANCH  39  40
ATOM     40  C19 NGI     0      -2.957  -2.221  -6.127  0.00  0.00    +0.000 C 
BRANCH  40  42
ATOM     41  O6  NGI     0      -1.896  -2.409  -4.031  0.00  0.00    +0.000 OA
ATOM     42  C20 NGI     0      -2.031  -2.879  -5.137  0.00  0.00    +0.000 C 
BRANCH  42  43
ATOM     43  O5  NGI     0      -1.358  -3.988  -5.482  0.00  0.00    +0.000 OA
ATOM     44  HO5 NGI     0      -0.713  -4.325  -4.846  0.00  0.00    +0.000 HD
ENDBRANCH  42  43
ENDBRANCH  40  42
ENDBRANCH  39  40
ENDBRANCH  36  39
ENDBRANCH  32  33
ENDBRANCH  31  32
ENDBRANCH   4  31
TORSDOF 13
