MODEL 1
REMARK VINA RESULT:      -9.8      0.000      0.000
REMARK  Name = NGI.pdb
REMARK  14 active torsions:
REMARK  status: ('A' for Active; 'I' for Inactive)
REMARK    1  A    between atoms: C1_1  and  C2_4
REMARK    2  A    between atoms: N1_2  and  C2_4
REMARK    3  A    between atoms: N2_5  and  C5_13
REMARK    4  A    between atoms: C3_7  and  C4_10
REMARK    5  A    between atoms: O3_9  and  C6_16
REMARK    6  A    between atoms: N4_11  and  C10_23
REMARK    7  A    between atoms: O4_12  and  C7_19
REMARK    8  A    between atoms: O5_15  and  C20_33
REMARK    9  A    between atoms: N6_17  and  C12_25
REMARK   10  A    between atoms: C12_25  and  C13_26
REMARK   11  A    between atoms: C13_26  and  C14_27
REMARK   12  A    between atoms: C17_30  and  C18_31
REMARK   13  A    between atoms: C18_31  and  C19_32
REMARK   14  A    between atoms: C19_32  and  C20_33
REMARK                            x       y       z     vdW  Elec       q    Type
REMARK                         _______ _______ _______ _____ _____    ______ ____
ROOT
ATOM      1  N2  NGI     0      -4.386   4.804 -15.371  0.00  0.00    +0.000 N 
ATOM      2  N3  NGI     0      -2.689   5.943 -14.604  0.00  0.00    +0.000 NA
ATOM      3  N5  NGI     0      -3.129   3.801 -11.649  0.00  0.00    +0.000 NA
ATOM      4  N6  NGI     0      -4.736   2.129 -11.375  0.00  0.00    +0.000 N 
ATOM      5  N7  NGI     0      -4.647   3.365 -13.350  0.00  0.00    +0.000 N 
ATOM      6  C8  NGI     0      -3.487   5.799 -15.621  0.00  0.00    +0.000 A 
ATOM      7  C9  NGI     0      -3.030   5.057 -13.635  0.00  0.00    +0.000 A 
ATOM      8  C10 NGI     0      -2.538   4.762 -12.351  0.00  0.00    +0.000 C 
ATOM      9  C11 NGI     0      -4.154   3.121 -12.147  0.00  0.00    +0.000 C 
ATOM     10  C23 NGI     0      -4.120   4.314 -14.117  0.00  0.00    +0.000 A 
ATOM     11  HN6 NGI     0      -5.485   1.621 -11.722  0.00  0.00    +0.000 HD
ATOM     12  H   NGI     0      -5.411   2.840 -13.680  0.00  0.00    +0.000 HD
ENDROOT
BRANCH   1  15
ATOM     13  O2  NGI     0      -5.035   4.501 -17.650  0.00  0.00    +0.000 OA
ATOM     14  C4  NGI     0      -6.261   4.508 -18.413  0.00  0.00    +0.000 C 
ATOM     15  C5  NGI     0      -5.445   4.346 -16.273  0.00  0.00    +0.000 C 
ATOM     16  C6  NGI     0      -6.697   5.239 -16.130  0.00  0.00    +0.000 C 
ATOM     17  C7  NGI     0      -7.246   5.348 -17.571  0.00  0.00    +0.000 C 
BRANCH  14  20
ATOM     18  N1  NGI     0      -5.441   6.356 -19.838  0.00  0.00    +0.000 N 
ATOM     19  O1  NGI     0      -6.401   4.585 -20.768  0.00  0.00    +0.000 OA
ATOM     20  C3  NGI     0      -6.039   5.152 -19.757  0.00  0.00    +0.000 C 
ATOM     21  HN1 NGI     0      -5.152   6.809 -19.030  0.00  0.00    +0.000 HD
BRANCH  18  23
ATOM     22  C1  NGI     0      -4.254   8.153 -20.997  0.00  0.00    +0.000 C 
ATOM     23  C2  NGI     0      -5.226   6.981 -21.145  0.00  0.00    +0.000 C 
ENDBRANCH  18  23
ENDBRANCH  14  20
BRANCH  16  24
ATOM     24  O3  NGI     0      -7.658   4.621 -15.274  0.00  0.00    +0.000 OA
ATOM     25  HO3 NGI     0      -8.250   5.245 -14.831  0.00  0.00    +0.000 HD
ENDBRANCH  16  24
BRANCH  17  26
ATOM     26  O4  NGI     0      -8.564   4.801 -17.647  0.00  0.00    +0.000 OA
ATOM     27  HO4 NGI     0      -8.726   4.078 -17.025  0.00  0.00    +0.000 HD
ENDBRANCH  17  26
ENDBRANCH   1  15
BRANCH   8  28
ATOM     28  N4  NGI     0      -1.461   5.456 -11.831  0.00  0.00    +0.000 NA
ATOM     29  HN4 NGI     0      -0.942   6.044 -12.402  0.00  0.00    +0.000 HD
ATOM     30 HN4A NGI     0      -1.224   5.356 -10.896  0.00  0.00    +0.000 HD
ENDBRANCH   8  28
BRANCH   4  31
ATOM     31  C12 NGI     0      -4.219   1.846 -10.034  0.00  0.00    +0.000 C 
BRANCH  31  32
ATOM     32  C13 NGI     0      -4.870   0.572  -9.493  0.00  0.00    +0.000 C 
BRANCH  32  33
ATOM     33  C14 NGI     0      -4.011  -0.007  -8.399  0.00  0.00    +0.000 A 
ATOM     34  C15 NGI     0      -4.579  -0.804  -7.423  0.00  0.00    +0.000 A 
ATOM     35  C16 NGI     0      -3.790  -1.335  -6.419  0.00  0.00    +0.000 A 
ATOM     36  C17 NGI     0      -2.434  -1.067  -6.391  0.00  0.00    +0.000 A 
ATOM     37  C21 NGI     0      -1.866  -0.270  -7.367  0.00  0.00    +0.000 A 
ATOM     38  C22 NGI     0      -2.653   0.255  -8.375  0.00  0.00    +0.000 A 
BRANCH  36  39
ATOM     39  C18 NGI     0      -1.575  -1.646  -5.297  0.00  0.00    +0.000 C 
BRANCH  39  40
ATOM     40  C19 NGI     0      -2.309  -2.813  -4.635  0.00  0.00    +0.000 C 
BRANCH  40  42
ATOM     41  O6  NGI     0      -1.101  -3.887  -2.920  0.00  0.00    +0.000 OA
ATOM     42  C20 NGI     0      -1.305  -3.805  -4.108  0.00  0.00    +0.000 C 
BRANCH  42  43
ATOM     43  O5  NGI     0      -0.636  -4.599  -4.960  0.00  0.00    +0.000 OA
ATOM     44  HO5 NGI     0      -0.851  -4.514  -5.899  0.00  0.00    +0.000 HD
ENDBRANCH  42  43
ENDBRANCH  40  42
ENDBRANCH  39  40
ENDBRANCH  36  39
ENDBRANCH  32  33
ENDBRANCH  31  32
ENDBRANCH   4  31
TORSDOF 13
ENDMDL
MODEL 2
REMARK VINA RESULT:      -9.7      2.700     12.088
REMARK  Name = NGI.pdb
REMARK  14 active torsions:
REMARK  status: ('A' for Active; 'I' for Inactive)
REMARK    1  A    between atoms: C1_1  and  C2_4
REMARK    2  A    between atoms: N1_2  and  C2_4
REMARK    3  A    between atoms: N2_5  and  C5_13
REMARK    4  A    between atoms: C3_7  and  C4_10
REMARK    5  A    between atoms: O3_9  and  C6_16
REMARK    6  A    between atoms: N4_11  and  C10_23
REMARK    7  A    between atoms: O4_12  and  C7_19
REMARK    8  A    between atoms: O5_15  and  C20_33
REMARK    9  A    between atoms: N6_17  and  C12_25
REMARK   10  A    between atoms: C12_25  and  C13_26
REMARK   11  A    between atoms: C13_26  and  C14_27
REMARK   12  A    between atoms: C17_30  and  C18_31
REMARK   13  A    between atoms: C18_31  and  C19_32
REMARK   14  A    between atoms: C19_32  and  C20_33
REMARK                            x       y       z     vdW  Elec       q    Type
REMARK                         _______ _______ _______ _____ _____    ______ ____
ROOT
ATOM      1  N2  NGI     0      -3.594   0.991  -9.338  0.00  0.00    +0.000 N 
ATOM      2  N3  NGI     0      -5.449   0.852 -10.480  0.00  0.00    +0.000 NA
ATOM      3  N5  NGI     0      -4.045   3.715 -12.306  0.00  0.00    +0.000 NA
ATOM      4  N6  NGI     0      -1.989   4.745 -11.902  0.00  0.00    +0.000 N 
ATOM      5  N7  NGI     0      -2.673   2.931 -10.607  0.00  0.00    +0.000 N 
ATOM      6  C8  NGI     0      -4.775   0.328  -9.498  0.00  0.00    +0.000 A 
ATOM      7  C9  NGI     0      -4.749   1.886 -11.006  0.00  0.00    +0.000 A 
ATOM      8  C10 NGI     0      -4.972   2.798 -12.053  0.00  0.00    +0.000 C 
ATOM      9  C11 NGI     0      -2.924   3.769 -11.599  0.00  0.00    +0.000 C 
ATOM     10  C23 NGI     0      -3.550   1.986 -10.282  0.00  0.00    +0.000 A 
ATOM     11  HN6 NGI     0      -1.163   4.800 -11.397  0.00  0.00    +0.000 HD
ATOM     12  H   NGI     0      -1.830   3.008 -10.105  0.00  0.00    +0.000 HD
ENDROOT
BRANCH   1  15
ATOM     13  O2  NGI     0      -2.783  -0.607  -7.758  0.00  0.00    +0.000 OA
ATOM     14  C4  NGI     0      -2.071  -0.588  -6.502  0.00  0.00    +0.000 C 
ATOM     15  C5  NGI     0      -2.565   0.698  -8.338  0.00  0.00    +0.000 C 
ATOM     16  C6  NGI     0      -2.671   1.682  -7.152  0.00  0.00    +0.000 C 
ATOM     17  C7  NGI     0      -2.340   0.816  -5.916  0.00  0.00    +0.000 C 
BRANCH  14  20
ATOM     18  N1  NGI     0      -1.762  -2.355  -4.797  0.00  0.00    +0.000 N 
ATOM     19  O1  NGI     0      -3.798  -1.878  -5.540  0.00  0.00    +0.000 OA
ATOM     20  C3  NGI     0      -2.606  -1.653  -5.579  0.00  0.00    +0.000 C 
ATOM     21  HN1 NGI     0      -0.809  -2.175  -4.829  0.00  0.00    +0.000 HD
BRANCH  18  23
ATOM     22  C1  NGI     0      -1.117  -4.120  -3.233  0.00  0.00    +0.000 C 
ATOM     23  C2  NGI     0      -2.283  -3.389  -3.901  0.00  0.00    +0.000 C 
ENDBRANCH  18  23
ENDBRANCH  14  20
BRANCH  16  24
ATOM     24  O3  NGI     0      -1.722   2.740  -7.291  0.00  0.00    +0.000 OA
ATOM     25  HO3 NGI     0      -1.244   2.731  -8.132  0.00  0.00    +0.000 HD
ENDBRANCH  16  24
BRANCH  17  26
ATOM     26  O4  NGI     0      -1.175   1.313  -5.254  0.00  0.00    +0.000 OA
ATOM     27  HO4 NGI     0      -0.446   1.534  -5.852  0.00  0.00    +0.000 HD
ENDBRANCH  17  26
ENDBRANCH   1  15
BRANCH   8  28
ATOM     28  N4  NGI     0      -6.132   2.739 -12.804  0.00  0.00    +0.000 NA
ATOM     29  HN4 NGI     0      -6.247   3.330 -13.565  0.00  0.00    +0.000 HD
ATOM     30 HN4A NGI     0      -6.831   2.109 -12.571  0.00  0.00    +0.000 HD
ENDBRANCH   8  28
BRANCH   4  31
ATOM     31  C12 NGI     0      -2.247   5.696 -12.987  0.00  0.00    +0.000 C 
BRANCH  31  32
ATOM     32  C13 NGI     0      -1.985   5.017 -14.333  0.00  0.00    +0.000 C 
BRANCH  32  33
ATOM     33  C14 NGI     0      -3.105   5.343 -15.287  0.00  0.00    +0.000 A 
ATOM     34  C15 NGI     0      -3.765   4.325 -15.950  0.00  0.00    +0.000 A 
ATOM     35  C16 NGI     0      -4.793   4.625 -16.825  0.00  0.00    +0.000 A 
ATOM     36  C17 NGI     0      -5.158   5.941 -17.038  0.00  0.00    +0.000 A 
ATOM     37  C21 NGI     0      -4.498   6.957 -16.375  0.00  0.00    +0.000 A 
ATOM     38  C22 NGI     0      -3.475   6.659 -15.495  0.00  0.00    +0.000 A 
BRANCH  36  39
ATOM     39  C18 NGI     0      -6.279   6.266 -17.992  0.00  0.00    +0.000 C 
BRANCH  39  40
ATOM     40  C19 NGI     0      -7.539   6.616 -17.200  0.00  0.00    +0.000 C 
BRANCH  40  42
ATOM     41  O6  NGI     0      -8.335   5.052 -15.626  0.00  0.00    +0.000 OA
ATOM     42  C20 NGI     0      -8.246   5.348 -16.795  0.00  0.00    +0.000 C 
BRANCH  42  43
ATOM     43  O5  NGI     0      -8.777   4.547 -17.732  0.00  0.00    +0.000 OA
ATOM     44  HO5 NGI     0      -8.217   4.327 -18.490  0.00  0.00    +0.000 HD
ENDBRANCH  42  43
ENDBRANCH  40  42
ENDBRANCH  39  40
ENDBRANCH  36  39
ENDBRANCH  32  33
ENDBRANCH  31  32
ENDBRANCH   4  31
TORSDOF 13
ENDMDL
MODEL 3
REMARK VINA RESULT:      -9.0      1.840      3.668
REMARK  Name = NGI.pdb
REMARK  14 active torsions:
REMARK  status: ('A' for Active; 'I' for Inactive)
REMARK    1  A    between atoms: C1_1  and  C2_4
REMARK    2  A    between atoms: N1_2  and  C2_4
REMARK    3  A    between atoms: N2_5  and  C5_13
REMARK    4  A    between atoms: C3_7  and  C4_10
REMARK    5  A    between atoms: O3_9  and  C6_16
REMARK    6  A    between atoms: N4_11  and  C10_23
REMARK    7  A    between atoms: O4_12  and  C7_19
REMARK    8  A    between atoms: O5_15  and  C20_33
REMARK    9  A    between atoms: N6_17  and  C12_25
REMARK   10  A    between atoms: C12_25  and  C13_26
REMARK   11  A    between atoms: C13_26  and  C14_27
REMARK   12  A    between atoms: C17_30  and  C18_31
REMARK   13  A    between atoms: C18_31  and  C19_32
REMARK   14  A    between atoms: C19_32  and  C20_33
REMARK                            x       y       z     vdW  Elec       q    Type
REMARK                         _______ _______ _______ _____ _____    ______ ____
ROOT
ATOM      1  N2  NGI     0      -4.923   3.613 -12.564  0.00  0.00    +0.000 N 
ATOM      2  N3  NGI     0      -5.987   1.892 -11.744  0.00  0.00    +0.000 NA
ATOM      3  N5  NGI     0      -3.000   1.590  -9.624  0.00  0.00    +0.000 NA
ATOM      4  N6  NGI     0      -1.129   2.988  -9.656  0.00  0.00    +0.000 N 
ATOM      5  N7  NGI     0      -2.917   3.378 -11.101  0.00  0.00    +0.000 N 
ATOM      6  C8  NGI     0      -6.054   2.852 -12.620  0.00  0.00    +0.000 A 
ATOM      7  C9  NGI     0      -4.808   1.971 -11.079  0.00  0.00    +0.000 A 
ATOM      8  C10 NGI     0      -4.202   1.223 -10.053  0.00  0.00    +0.000 C 
ATOM      9  C11 NGI     0      -2.383   2.647 -10.137  0.00  0.00    +0.000 C 
ATOM     10  C23 NGI     0      -4.114   3.077 -11.594  0.00  0.00    +0.000 A 
ATOM     11  HN6 NGI     0      -0.663   3.757 -10.017  0.00  0.00    +0.000 HD
ATOM     12  H   NGI     0      -2.423   4.152 -11.457  0.00  0.00    +0.000 HD
ENDROOT
BRANCH   1  15
ATOM     13  O2  NGI     0      -5.644   4.959 -14.401  0.00  0.00    +0.000 OA
ATOM     14  C4  NGI     0      -5.031   5.775 -15.422  0.00  0.00    +0.000 C 
ATOM     15  C5  NGI     0      -4.626   4.784 -13.391  0.00  0.00    +0.000 C 
ATOM     16  C6  NGI     0      -3.317   4.565 -14.183  0.00  0.00    +0.000 C 
ATOM     17  C7  NGI     0      -3.590   5.232 -15.550  0.00  0.00    +0.000 C 
BRANCH  14  20
ATOM     18  N1  NGI     0      -5.077   5.501 -17.881  0.00  0.00    +0.000 N 
ATOM     19  O1  NGI     0      -6.979   5.610 -16.744  0.00  0.00    +0.000 OA
ATOM     20  C3  NGI     0      -5.766   5.623 -16.729  0.00  0.00    +0.000 C 
ATOM     21  HN1 NGI     0      -4.107   5.511 -17.869  0.00  0.00    +0.000 HD
BRANCH  18  23
ATOM     22  C1  NGI     0      -5.687   3.904 -19.629  0.00  0.00    +0.000 C 
ATOM     23  C2  NGI     0      -5.793   5.353 -19.150  0.00  0.00    +0.000 C 
ENDBRANCH  18  23
ENDBRANCH  14  20
BRANCH  16  24
ATOM     24  O3  NGI     0      -2.221   5.203 -13.525  0.00  0.00    +0.000 OA
ATOM     25  HO3 NGI     0      -1.575   5.595 -14.128  0.00  0.00    +0.000 HD
ENDBRANCH  16  24
BRANCH  17  26
ATOM     26  O4  NGI     0      -2.670   6.301 -15.778  0.00  0.00    +0.000 OA
ATOM     27  HO4 NGI     0      -2.651   6.617 -16.692  0.00  0.00    +0.000 HD
ENDBRANCH  17  26
ENDBRANCH   1  15
BRANCH   8  28
ATOM     28  N4  NGI     0      -4.845   0.129  -9.503  0.00  0.00    +0.000 NA
ATOM     29  HN4 NGI     0      -4.334  -0.549  -9.034  0.00  0.00    +0.000 HD
ATOM     30 HN4A NGI     0      -5.807   0.038  -9.587  0.00  0.00    +0.000 HD
ENDBRANCH   8  28
BRANCH   4  31
ATOM     31  C12 NGI     0      -0.508   2.187  -8.598  0.00  0.00    +0.000 C 
BRANCH  31  32
ATOM     32  C13 NGI     0      -1.325   2.320  -7.311  0.00  0.00    +0.000 C 
BRANCH  32  33
ATOM     33  C14 NGI     0      -1.702   0.949  -6.810  0.00  0.00    +0.000 A 
ATOM     34  C15 NGI     0      -0.800  -0.094  -6.909  0.00  0.00    +0.000 A 
ATOM     35  C16 NGI     0      -1.147  -1.352  -6.451  0.00  0.00    +0.000 A 
ATOM     36  C17 NGI     0      -2.394  -1.566  -5.894  0.00  0.00    +0.000 A 
ATOM     37  C21 NGI     0      -3.295  -0.522  -5.796  0.00  0.00    +0.000 A 
ATOM     38  C22 NGI     0      -2.947   0.737  -6.248  0.00  0.00    +0.000 A 
BRANCH  36  39
ATOM     39  C18 NGI     0      -2.771  -2.936  -5.395  0.00  0.00    +0.000 C 
BRANCH  39  40
ATOM     40  C19 NGI     0      -2.408  -3.057  -3.914  0.00  0.00    +0.000 C 
BRANCH  40  42
ATOM     41  O6  NGI     0      -0.877  -4.329  -2.651  0.00  0.00    +0.000 OA
ATOM     42  C20 NGI     0      -1.258  -4.019  -3.755  0.00  0.00    +0.000 C 
BRANCH  42  43
ATOM     43  O5  NGI     0      -0.659  -4.533  -4.842  0.00  0.00    +0.000 OA
ATOM     44  HO5 NGI     0       0.189  -4.146  -5.099  0.00  0.00    +0.000 HD
ENDBRANCH  42  43
ENDBRANCH  40  42
ENDBRANCH  39  40
ENDBRANCH  36  39
ENDBRANCH  32  33
ENDBRANCH  31  32
ENDBRANCH   4  31
TORSDOF 13
ENDMDL
MODEL 4
REMARK VINA RESULT:      -9.0      3.106     12.993
REMARK  Name = NGI.pdb
REMARK  14 active torsions:
REMARK  status: ('A' for Active; 'I' for Inactive)
REMARK    1  A    between atoms: C1_1  and  C2_4
REMARK    2  A    between atoms: N1_2  and  C2_4
REMARK    3  A    between atoms: N2_5  and  C5_13
REMARK    4  A    between atoms: C3_7  and  C4_10
REMARK    5  A    between atoms: O3_9  and  C6_16
REMARK    6  A    between atoms: N4_11  and  C10_23
REMARK    7  A    between atoms: O4_12  and  C7_19
REMARK    8  A    between atoms: O5_15  and  C20_33
REMARK    9  A    between atoms: N6_17  and  C12_25
REMARK   10  A    between atoms: C12_25  and  C13_26
REMARK   11  A    between atoms: C13_26  and  C14_27
REMARK   12  A    between atoms: C17_30  and  C18_31
REMARK   13  A    between atoms: C18_31  and  C19_32
REMARK   14  A    between atoms: C19_32  and  C20_33
REMARK                            x       y       z     vdW  Elec       q    Type
REMARK                         _______ _______ _______ _____ _____    ______ ____
ROOT
ATOM      1  N2  NGI     0      -3.836   0.592  -8.896  0.00  0.00    +0.000 N 
ATOM      2  N3  NGI     0      -5.728  -0.197  -9.648  0.00  0.00    +0.000 NA
ATOM      3  N5  NGI     0      -5.328   2.430 -12.186  0.00  0.00    +0.000 NA
ATOM      4  N6  NGI     0      -3.560   3.947 -12.347  0.00  0.00    +0.000 N 
ATOM      5  N7  NGI     0      -3.599   2.358 -10.641  0.00  0.00    +0.000 N 
ATOM      6  C8  NGI     0      -4.825  -0.332  -8.721  0.00  0.00    +0.000 A 
ATOM      7  C9  NGI     0      -5.381   0.823 -10.470  0.00  0.00    +0.000 A 
ATOM      8  C10 NGI     0      -5.957   1.411 -11.611  0.00  0.00    +0.000 C 
ATOM      9  C11 NGI     0      -4.175   2.881 -11.710  0.00  0.00    +0.000 C 
ATOM     10  C23 NGI     0      -4.162   1.339  -9.999  0.00  0.00    +0.000 A 
ATOM     11  HN6 NGI     0      -2.717   4.290 -12.014  0.00  0.00    +0.000 HD
ATOM     12  H   NGI     0      -2.745   2.726 -10.318  0.00  0.00    +0.000 HD
ENDROOT
BRANCH   1  15
ATOM     13  O2  NGI     0      -2.107  -0.530  -7.687  0.00  0.00    +0.000 OA
ATOM     14  C4  NGI     0      -1.301  -0.282  -6.515  0.00  0.00    +0.000 C 
ATOM     15  C5  NGI     0      -2.648   0.759  -8.057  0.00  0.00    +0.000 C 
ATOM     16  C6  NGI     0      -3.025   1.428  -6.716  0.00  0.00    +0.000 C 
ATOM     17  C7  NGI     0      -2.119   0.727  -5.679  0.00  0.00    +0.000 C 
BRANCH  14  20
ATOM     18  N1  NGI     0      -2.088  -2.053  -4.977  0.00  0.00    +0.000 N 
ATOM     19  O1  NGI     0      -0.031  -2.140  -5.804  0.00  0.00    +0.000 OA
ATOM     20  C3  NGI     0      -1.094  -1.558  -5.741  0.00  0.00    +0.000 C 
ATOM     21  HN1 NGI     0      -2.938  -1.587  -4.927  0.00  0.00    +0.000 HD
BRANCH  18  23
ATOM     22  C1  NGI     0      -3.089  -3.537  -3.312  0.00  0.00    +0.000 C 
ATOM     23  C2  NGI     0      -1.886  -3.293  -4.225  0.00  0.00    +0.000 C 
ENDBRANCH  18  23
ENDBRANCH  14  20
BRANCH  16  24
ATOM     24  O3  NGI     0      -2.746   2.828  -6.760  0.00  0.00    +0.000 OA
ATOM     25  HO3 NGI     0      -3.163   3.289  -7.501  0.00  0.00    +0.000 HD
ENDBRANCH  16  24
BRANCH  17  26
ATOM     26  O4  NGI     0      -1.253   1.675  -5.050  0.00  0.00    +0.000 OA
ATOM     27  HO4 NGI     0      -0.594   1.277  -4.463  0.00  0.00    +0.000 HD
ENDBRANCH  17  26
ENDBRANCH   1  15
BRANCH   8  28
ATOM     28  N4  NGI     0      -7.151   0.936 -12.122  0.00  0.00    +0.000 NA
ATOM     29  HN4 NGI     0      -7.178   0.078 -12.572  0.00  0.00    +0.000 HD
ATOM     30 HN4A NGI     0      -7.961   1.461 -12.032  0.00  0.00    +0.000 HD
ENDBRANCH   8  28
BRANCH   4  31
ATOM     31  C12 NGI     0      -4.184   4.556 -13.525  0.00  0.00    +0.000 C 
BRANCH  31  32
ATOM     32  C13 NGI     0      -3.128   5.324 -14.322  0.00  0.00    +0.000 C 
BRANCH  32  33
ATOM     33  C14 NGI     0      -3.783   6.012 -15.491  0.00  0.00    +0.000 A 
ATOM     34  C15 NGI     0      -4.391   5.263 -16.482  0.00  0.00    +0.000 A 
ATOM     35  C16 NGI     0      -4.991   5.895 -17.555  0.00  0.00    +0.000 A 
ATOM     36  C17 NGI     0      -4.984   7.275 -17.638  0.00  0.00    +0.000 A 
ATOM     37  C21 NGI     0      -4.377   8.023 -16.648  0.00  0.00    +0.000 A 
ATOM     38  C22 NGI     0      -3.781   7.393 -15.571  0.00  0.00    +0.000 A 
BRANCH  36  39
ATOM     39  C18 NGI     0      -5.639   7.962 -18.808  0.00  0.00    +0.000 C 
BRANCH  39  40
ATOM     40  C19 NGI     0      -4.811   7.720 -20.071  0.00  0.00    +0.000 C 
BRANCH  40  42
ATOM     41  O6  NGI     0      -3.031   8.826 -21.149  0.00  0.00    +0.000 OA
ATOM     42  C20 NGI     0      -3.883   8.886 -20.294  0.00  0.00    +0.000 C 
BRANCH  42  43
ATOM     43  O5  NGI     0      -4.004   9.993 -19.543  0.00  0.00    +0.000 OA
ATOM     44  HO5 NGI     0      -3.997   9.874 -18.584  0.00  0.00    +0.000 HD
ENDBRANCH  42  43
ENDBRANCH  40  42
ENDBRANCH  39  40
ENDBRANCH  36  39
ENDBRANCH  32  33
ENDBRANCH  31  32
ENDBRANCH   4  31
TORSDOF 13
ENDMDL
MODEL 5
REMARK VINA RESULT:      -8.9      3.363     12.525
REMARK  Name = NGI.pdb
REMARK  14 active torsions:
REMARK  status: ('A' for Active; 'I' for Inactive)
REMARK    1  A    between atoms: C1_1  and  C2_4
REMARK    2  A    between atoms: N1_2  and  C2_4
REMARK    3  A    between atoms: N2_5  and  C5_13
REMARK    4  A    between atoms: C3_7  and  C4_10
REMARK    5  A    between atoms: O3_9  and  C6_16
REMARK    6  A    between atoms: N4_11  and  C10_23
REMARK    7  A    between atoms: O4_12  and  C7_19
REMARK    8  A    between atoms: O5_15  and  C20_33
REMARK    9  A    between atoms: N6_17  and  C12_25
REMARK   10  A    between atoms: C12_25  and  C13_26
REMARK   11  A    between atoms: C13_26  and  C14_27
REMARK   12  A    between atoms: C17_30  and  C18_31
REMARK   13  A    between atoms: C18_31  and  C19_32
REMARK   14  A    between atoms: C19_32  and  C20_33
REMARK                            x       y       z     vdW  Elec       q    Type
REMARK                         _______ _______ _______ _____ _____    ______ ____
ROOT
ATOM      1  N2  NGI     0      -2.322   2.654  -8.749  0.00  0.00    +0.000 N 
ATOM      2  N3  NGI     0      -0.685   3.984  -9.312  0.00  0.00    +0.000 NA
ATOM      3  N5  NGI     0      -2.641   4.393 -12.396  0.00  0.00    +0.000 NA
ATOM      4  N6  NGI     0      -4.684   3.375 -12.889  0.00  0.00    +0.000 N 
ATOM      5  N7  NGI     0      -3.622   2.964 -10.854  0.00  0.00    +0.000 N 
ATOM      6  C8  NGI     0      -1.129   3.200  -8.374  0.00  0.00    +0.000 A 
ATOM      7  C9  NGI     0      -1.558   3.986 -10.349  0.00  0.00    +0.000 A 
ATOM      8  C10 NGI     0      -1.604   4.626 -11.600  0.00  0.00    +0.000 C 
ATOM      9  C11 NGI     0      -3.625   3.585 -12.021  0.00  0.00    +0.000 C 
ATOM     10  C23 NGI     0      -2.619   3.135  -9.999  0.00  0.00    +0.000 A 
ATOM     11  HN6 NGI     0      -5.412   2.789 -12.632  0.00  0.00    +0.000 HD
ATOM     12  H   NGI     0      -4.371   2.369 -10.616  0.00  0.00    +0.000 HD
ENDROOT
BRANCH   1  15
ATOM     13  O2  NGI     0      -2.339   1.126  -6.912  0.00  0.00    +0.000 OA
ATOM     14  C4  NGI     0      -3.039  -0.082  -6.545  0.00  0.00    +0.000 C 
ATOM     15  C5  NGI     0      -3.132   1.721  -7.963  0.00  0.00    +0.000 C 
ATOM     16  C6  NGI     0      -3.584   0.531  -8.839  0.00  0.00    +0.000 C 
ATOM     17  C7  NGI     0      -3.521  -0.682  -7.884  0.00  0.00    +0.000 C 
BRANCH  14  20
ATOM     18  N1  NGI     0      -2.556  -2.240  -5.434  0.00  0.00    +0.000 N 
ATOM     19  O1  NGI     0      -0.949  -0.727  -5.658  0.00  0.00    +0.000 OA
ATOM     20  C3  NGI     0      -2.106  -1.039  -5.848  0.00  0.00    +0.000 C 
ATOM     21  HN1 NGI     0      -3.482  -2.489  -5.586  0.00  0.00    +0.000 HD
BRANCH  18  23
ATOM     22  C1  NGI     0      -2.241  -3.563  -3.402  0.00  0.00    +0.000 C 
ATOM     23  C2  NGI     0      -1.649  -3.168  -4.757  0.00  0.00    +0.000 C 
ENDBRANCH  18  23
ENDBRANCH  14  20
BRANCH  16  24
ATOM     24  O3  NGI     0      -4.919   0.732  -9.306  0.00  0.00    +0.000 OA
ATOM     25  HO3 NGI     0      -4.974   1.198 -10.152  0.00  0.00    +0.000 HD
ENDBRANCH  16  24
BRANCH  17  26
ATOM     26  O4  NGI     0      -4.816  -1.268  -7.733  0.00  0.00    +0.000 OA
ATOM     27  HO4 NGI     0      -5.188  -1.618  -8.555  0.00  0.00    +0.000 HD
ENDBRANCH  17  26
ENDBRANCH   1  15
BRANCH   8  28
ATOM     28  N4  NGI     0      -0.590   5.481 -11.992  0.00  0.00    +0.000 NA
ATOM     29  HN4 NGI     0       0.285   5.126 -12.214  0.00  0.00    +0.000 HD
ATOM     30 HN4A NGI     0      -0.752   6.436 -12.045  0.00  0.00    +0.000 HD
ENDBRANCH   8  28
BRANCH   4  31
ATOM     31  C12 NGI     0      -4.705   4.040 -14.194  0.00  0.00    +0.000 C 
BRANCH  31  32
ATOM     32  C13 NGI     0      -5.784   5.125 -14.197  0.00  0.00    +0.000 C 
BRANCH  32  33
ATOM     33  C14 NGI     0      -5.375   6.238 -15.127  0.00  0.00    +0.000 A 
ATOM     34  C15 NGI     0      -4.545   7.246 -14.675  0.00  0.00    +0.000 A 
ATOM     35  C16 NGI     0      -4.170   8.267 -15.529  0.00  0.00    +0.000 A 
ATOM     36  C17 NGI     0      -4.627   8.280 -16.834  0.00  0.00    +0.000 A 
ATOM     37  C21 NGI     0      -5.456   7.272 -17.285  0.00  0.00    +0.000 A 
ATOM     38  C22 NGI     0      -5.826   6.247 -16.434  0.00  0.00    +0.000 A 
BRANCH  36  39
ATOM     39  C18 NGI     0      -4.218   9.393 -17.764  0.00  0.00    +0.000 C 
BRANCH  39  40
ATOM     40  C19 NGI     0      -4.091   8.849 -19.187  0.00  0.00    +0.000 C 
BRANCH  40  42
ATOM     41  O6  NGI     0      -3.602  10.875 -20.286  0.00  0.00    +0.000 OA
ATOM     42  C20 NGI     0      -3.215   9.767 -20.000  0.00  0.00    +0.000 C 
BRANCH  42  43
ATOM     43  O5  NGI     0      -2.004   9.353 -20.405  0.00  0.00    +0.000 OA
ATOM     44  HO5 NGI     0      -1.287  10.002 -20.378  0.00  0.00    +0.000 HD
ENDBRANCH  42  43
ENDBRANCH  40  42
ENDBRANCH  39  40
ENDBRANCH  36  39
ENDBRANCH  32  33
ENDBRANCH  31  32
ENDBRANCH   4  31
TORSDOF 13
ENDMDL
MODEL 6
REMARK VINA RESULT:      -8.2      3.009     12.050
REMARK  Name = NGI.pdb
REMARK  14 active torsions:
REMARK  status: ('A' for Active; 'I' for Inactive)
REMARK    1  A    between atoms: C1_1  and  C2_4
REMARK    2  A    between atoms: N1_2  and  C2_4
REMARK    3  A    between atoms: N2_5  and  C5_13
REMARK    4  A    between atoms: C3_7  and  C4_10
REMARK    5  A    between atoms: O3_9  and  C6_16
REMARK    6  A    between atoms: N4_11  and  C10_23
REMARK    7  A    between atoms: O4_12  and  C7_19
REMARK    8  A    between atoms: O5_15  and  C20_33
REMARK    9  A    between atoms: N6_17  and  C12_25
REMARK   10  A    between atoms: C12_25  and  C13_26
REMARK   11  A    between atoms: C13_26  and  C14_27
REMARK   12  A    between atoms: C17_30  and  C18_31
REMARK   13  A    between atoms: C18_31  and  C19_32
REMARK   14  A    between atoms: C19_32  and  C20_33
REMARK                            x       y       z     vdW  Elec       q    Type
REMARK                         _______ _______ _______ _____ _____    ______ ____
ROOT
ATOM      1  N2  NGI     0      -3.861   1.781 -10.297  0.00  0.00    +0.000 N 
ATOM      2  N3  NGI     0      -5.837   1.670 -11.217  0.00  0.00    +0.000 NA
ATOM      3  N5  NGI     0      -4.535   4.372 -13.341  0.00  0.00    +0.000 NA
ATOM      4  N6  NGI     0      -2.406   5.325 -13.223  0.00  0.00    +0.000 N 
ATOM      5  N7  NGI     0      -3.012   3.611 -11.764  0.00  0.00    +0.000 N 
ATOM      6  C8  NGI     0      -5.078   1.166 -10.288  0.00  0.00    +0.000 A 
ATOM      7  C9  NGI     0      -5.160   2.644 -11.873  0.00  0.00    +0.000 A 
ATOM      8  C10 NGI     0      -5.463   3.512 -12.938  0.00  0.00    +0.000 C 
ATOM      9  C11 NGI     0      -3.339   4.409 -12.766  0.00  0.00    +0.000 C 
ATOM     10  C23 NGI     0      -3.883   2.724 -11.292  0.00  0.00    +0.000 A 
ATOM     11  HN6 NGI     0      -1.527   5.366 -12.816  0.00  0.00    +0.000 HD
ATOM     12  H   NGI     0      -2.115   3.674 -11.363  0.00  0.00    +0.000 HD
ENDROOT
BRANCH   1  15
ATOM     13  O2  NGI     0      -3.029   0.335  -8.586  0.00  0.00    +0.000 OA
ATOM     14  C4  NGI     0      -2.139   0.435  -7.454  0.00  0.00    +0.000 C 
ATOM     15  C5  NGI     0      -2.738   1.491  -9.402  0.00  0.00    +0.000 C 
ATOM     16  C6  NGI     0      -2.540   2.646  -8.395  0.00  0.00    +0.000 C 
ATOM     17  C7  NGI     0      -2.138   1.934  -7.083  0.00  0.00    +0.000 C 
BRANCH  14  20
ATOM     18  N1  NGI     0      -2.614  -1.734  -6.362  0.00  0.00    +0.000 N 
ATOM     19  O1  NGI     0      -3.119   0.161  -5.324  0.00  0.00    +0.000 OA
ATOM     20  C3  NGI     0      -2.659  -0.389  -6.303  0.00  0.00    +0.000 C 
ATOM     21  HN1 NGI     0      -2.247  -2.173  -7.146  0.00  0.00    +0.000 HD
BRANCH  18  23
ATOM     22  C1  NGI     0      -1.945  -3.173  -4.502  0.00  0.00    +0.000 C 
ATOM     23  C2  NGI     0      -3.120  -2.533  -5.244  0.00  0.00    +0.000 C 
ENDBRANCH  18  23
ENDBRANCH  14  20
BRANCH  16  24
ATOM     24  O3  NGI     0      -1.497   3.519  -8.831  0.00  0.00    +0.000 OA
ATOM     25  HO3 NGI     0      -0.735   3.549  -8.237  0.00  0.00    +0.000 HD
ENDBRANCH  16  24
BRANCH  17  26
ATOM     26  O4  NGI     0      -0.833   2.347  -6.670  0.00  0.00    +0.000 OA
ATOM     27  HO4 NGI     0      -0.582   3.227  -6.982  0.00  0.00    +0.000 HD
ENDBRANCH  17  26
ENDBRANCH   1  15
BRANCH   8  28
ATOM     28  N4  NGI     0      -6.702   3.469 -13.551  0.00  0.00    +0.000 NA
ATOM     29  HN4 NGI     0      -7.387   2.868 -13.219  0.00  0.00    +0.000 HD
ATOM     30 HN4A NGI     0      -6.886   4.039 -14.314  0.00  0.00    +0.000 HD
ENDBRANCH   8  28
BRANCH   4  31
ATOM     31  C12 NGI     0      -2.746   6.231 -14.323  0.00  0.00    +0.000 C 
BRANCH  31  32
ATOM     32  C13 NGI     0      -2.763   5.451 -15.640  0.00  0.00    +0.000 C 
BRANCH  32  33
ATOM     33  C14 NGI     0      -3.997   5.815 -16.424  0.00  0.00    +0.000 A 
ATOM     34  C15 NGI     0      -4.779   4.822 -16.982  0.00  0.00    +0.000 A 
ATOM     35  C16 NGI     0      -5.912   5.156 -17.702  0.00  0.00    +0.000 A 
ATOM     36  C17 NGI     0      -6.261   6.484 -17.864  0.00  0.00    +0.000 A 
ATOM     37  C21 NGI     0      -5.479   7.477 -17.306  0.00  0.00    +0.000 A 
ATOM     38  C22 NGI     0      -4.350   7.143 -16.581  0.00  0.00    +0.000 A 
BRANCH  36  39
ATOM     39  C18 NGI     0      -7.495   6.847 -18.648  0.00  0.00    +0.000 C 
BRANCH  39  40
ATOM     40  C19 NGI     0      -8.499   7.542 -17.727  0.00  0.00    +0.000 C 
BRANCH  40  42
ATOM     41  O6  NGI     0     -10.158   6.711 -16.275  0.00  0.00    +0.000 OA
ATOM     42  C20 NGI     0      -9.568   6.562 -17.319  0.00  0.00    +0.000 C 
BRANCH  42  43
ATOM     43  O5  NGI     0      -9.867   5.525 -18.117  0.00  0.00    +0.000 OA
ATOM     44  HO5 NGI     0      -9.360   5.441 -18.936  0.00  0.00    +0.000 HD
ENDBRANCH  42  43
ENDBRANCH  40  42
ENDBRANCH  39  40
ENDBRANCH  36  39
ENDBRANCH  32  33
ENDBRANCH  31  32
ENDBRANCH   4  31
TORSDOF 13
ENDMDL
MODEL 7
REMARK VINA RESULT:      -8.1      2.193      3.622
REMARK  Name = NGI.pdb
REMARK  14 active torsions:
REMARK  status: ('A' for Active; 'I' for Inactive)
REMARK    1  A    between atoms: C1_1  and  C2_4
REMARK    2  A    between atoms: N1_2  and  C2_4
REMARK    3  A    between atoms: N2_5  and  C5_13
REMARK    4  A    between atoms: C3_7  and  C4_10
REMARK    5  A    between atoms: O3_9  and  C6_16
REMARK    6  A    between atoms: N4_11  and  C10_23
REMARK    7  A    between atoms: O4_12  and  C7_19
REMARK    8  A    between atoms: O5_15  and  C20_33
REMARK    9  A    between atoms: N6_17  and  C12_25
REMARK   10  A    between atoms: C12_25  and  C13_26
REMARK   11  A    between atoms: C13_26  and  C14_27
REMARK   12  A    between atoms: C17_30  and  C18_31
REMARK   13  A    between atoms: C18_31  and  C19_32
REMARK   14  A    between atoms: C19_32  and  C20_33
REMARK                            x       y       z     vdW  Elec       q    Type
REMARK                         _______ _______ _______ _____ _____    ______ ____
ROOT
ATOM      1  N2  NGI     0      -5.171   3.772 -13.340  0.00  0.00    +0.000 N 
ATOM      2  N3  NGI     0      -5.856   2.154 -12.045  0.00  0.00    +0.000 NA
ATOM      3  N5  NGI     0      -2.716   2.825 -10.257  0.00  0.00    +0.000 NA
ATOM      4  N6  NGI     0      -1.125   4.444 -10.806  0.00  0.00    +0.000 N 
ATOM      5  N7  NGI     0      -3.053   4.201 -12.094  0.00  0.00    +0.000 N 
ATOM      6  C8  NGI     0      -6.153   2.856 -13.099  0.00  0.00    +0.000 A 
ATOM      7  C9  NGI     0      -4.664   2.568 -11.549  0.00  0.00    +0.000 A 
ATOM      8  C10 NGI     0      -3.864   2.187 -10.456  0.00  0.00    +0.000 C 
ATOM      9  C11 NGI     0      -2.331   3.811 -11.057  0.00  0.00    +0.000 C 
ATOM     10  C23 NGI     0      -4.212   3.613 -12.372  0.00  0.00    +0.000 A 
ATOM     11  HN6 NGI     0      -0.828   5.167 -11.380  0.00  0.00    +0.000 HD
ATOM     12  H   NGI     0      -2.729   4.935 -12.666  0.00  0.00    +0.000 HD
ENDROOT
BRANCH   1  15
ATOM     13  O2  NGI     0      -6.483   5.173 -14.762  0.00  0.00    +0.000 OA
ATOM     14  C4  NGI     0      -6.398   5.699 -16.104  0.00  0.00    +0.000 C 
ATOM     15  C5  NGI     0      -5.143   4.744 -14.436  0.00  0.00    +0.000 C 
ATOM     16  C6  NGI     0      -4.614   4.083 -15.728  0.00  0.00    +0.000 C 
ATOM     17  C7  NGI     0      -5.459   4.725 -16.851  0.00  0.00    +0.000 C 
BRANCH  14  20
ATOM     18  N1  NGI     0      -7.990   4.974 -17.854  0.00  0.00    +0.000 N 
ATOM     19  O1  NGI     0      -8.648   6.391 -16.278  0.00  0.00    +0.000 OA
ATOM     20  C3  NGI     0      -7.759   5.713 -16.751  0.00  0.00    +0.000 C 
ATOM     21  HN1 NGI     0      -7.280   4.432 -18.232  0.00  0.00    +0.000 HD
BRANCH  18  23
ATOM     22  C1  NGI     0      -9.251   4.250 -19.819  0.00  0.00    +0.000 C 
ATOM     23  C2  NGI     0      -9.313   4.989 -18.481  0.00  0.00    +0.000 C 
ENDBRANCH  18  23
ENDBRANCH  14  20
BRANCH  16  24
ATOM     24  O3  NGI     0      -3.229   4.380 -15.911  0.00  0.00    +0.000 OA
ATOM     25  HO3 NGI     0      -3.058   5.073 -16.563  0.00  0.00    +0.000 HD
ENDBRANCH  16  24
BRANCH  17  26
ATOM     26  O4  NGI     0      -4.620   5.438 -17.762  0.00  0.00    +0.000 OA
ATOM     27  HO4 NGI     0      -4.129   4.870 -18.372  0.00  0.00    +0.000 HD
ENDBRANCH  17  26
ENDBRANCH   1  15
BRANCH   8  28
ATOM     28  N4  NGI     0      -4.265   1.171  -9.608  0.00  0.00    +0.000 NA
ATOM     29  HN4 NGI     0      -3.601   0.634  -9.148  0.00  0.00    +0.000 HD
ATOM     30 HN4A NGI     0      -5.208   0.994  -9.474  0.00  0.00    +0.000 HD
ENDBRANCH   8  28
BRANCH   4  31
ATOM     31  C12 NGI     0      -0.299   4.023  -9.672  0.00  0.00    +0.000 C 
BRANCH  31  32
ATOM     32  C13 NGI     0       0.075   2.548  -9.834  0.00  0.00    +0.000 C 
BRANCH  32  33
ATOM     33  C14 NGI     0      -0.455   1.764  -8.661  0.00  0.00    +0.000 A 
ATOM     34  C15 NGI     0      -0.457   0.382  -8.698  0.00  0.00    +0.000 A 
ATOM     35  C16 NGI     0      -0.944  -0.337  -7.623  0.00  0.00    +0.000 A 
ATOM     36  C17 NGI     0      -1.429   0.326  -6.510  0.00  0.00    +0.000 A 
ATOM     37  C21 NGI     0      -1.427   1.707  -6.473  0.00  0.00    +0.000 A 
ATOM     38  C22 NGI     0      -0.934   2.426  -7.546  0.00  0.00    +0.000 A 
BRANCH  36  39
ATOM     39  C18 NGI     0      -1.959  -0.459  -5.338  0.00  0.00    +0.000 C 
BRANCH  39  40
ATOM     40  C19 NGI     0      -2.701  -1.697  -5.846  0.00  0.00    +0.000 C 
BRANCH  40  42
ATOM     41  O6  NGI     0      -1.238  -3.317  -4.958  0.00  0.00    +0.000 OA
ATOM     42  C20 NGI     0      -2.363  -2.878  -4.973  0.00  0.00    +0.000 C 
BRANCH  42  43
ATOM     43  O5  NGI     0      -3.314  -3.442  -4.212  0.00  0.00    +0.000 OA
ATOM     44  HO5 NGI     0      -3.124  -3.533  -3.268  0.00  0.00    +0.000 HD
ENDBRANCH  42  43
ENDBRANCH  40  42
ENDBRANCH  39  40
ENDBRANCH  36  39
ENDBRANCH  32  33
ENDBRANCH  31  32
ENDBRANCH   4  31
TORSDOF 13
ENDMDL
MODEL 8
REMARK VINA RESULT:      -7.7      3.172     12.560
REMARK  Name = NGI.pdb
REMARK  14 active torsions:
REMARK  status: ('A' for Active; 'I' for Inactive)
REMARK    1  A    between atoms: C1_1  and  C2_4
REMARK    2  A    between atoms: N1_2  and  C2_4
REMARK    3  A    between atoms: N2_5  and  C5_13
REMARK    4  A    between atoms: C3_7  and  C4_10
REMARK    5  A    between atoms: O3_9  and  C6_16
REMARK    6  A    between atoms: N4_11  and  C10_23
REMARK    7  A    between atoms: O4_12  and  C7_19
REMARK    8  A    between atoms: O5_15  and  C20_33
REMARK    9  A    between atoms: N6_17  and  C12_25
REMARK   10  A    between atoms: C12_25  and  C13_26
REMARK   11  A    between atoms: C13_26  and  C14_27
REMARK   12  A    between atoms: C17_30  and  C18_31
REMARK   13  A    between atoms: C18_31  and  C19_32
REMARK   14  A    between atoms: C19_32  and  C20_33
REMARK                            x       y       z     vdW  Elec       q    Type
REMARK                         _______ _______ _______ _____ _____    ______ ____
ROOT
ATOM      1  N2  NGI     0      -3.833   1.731 -10.213  0.00  0.00    +0.000 N 
ATOM      2  N3  NGI     0      -5.782   1.654 -11.194  0.00  0.00    +0.000 NA
ATOM      3  N5  NGI     0      -4.377   4.352 -13.256  0.00  0.00    +0.000 NA
ATOM      4  N6  NGI     0      -2.239   5.275 -13.066  0.00  0.00    +0.000 N 
ATOM      5  N7  NGI     0      -2.914   3.559 -11.639  0.00  0.00    +0.000 N 
ATOM      6  C8  NGI     0      -5.059   1.133 -10.246  0.00  0.00    +0.000 A 
ATOM      7  C9  NGI     0      -5.071   2.623 -11.822  0.00  0.00    +0.000 A 
ATOM      8  C10 NGI     0      -5.329   3.503 -12.889  0.00  0.00    +0.000 C 
ATOM      9  C11 NGI     0      -3.199   4.368 -12.645  0.00  0.00    +0.000 C 
ATOM     10  C23 NGI     0      -3.812   2.681 -11.202  0.00  0.00    +0.000 A 
ATOM     11  HN6 NGI     0      -1.373   5.301 -12.633  0.00  0.00    +0.000 HD
ATOM     12  H   NGI     0      -2.029   3.606 -11.210  0.00  0.00    +0.000 HD
ENDROOT
BRANCH   1  15
ATOM     13  O2  NGI     0      -3.075   0.261  -8.489  0.00  0.00    +0.000 OA
ATOM     14  C4  NGI     0      -2.219   0.340  -7.329  0.00  0.00    +0.000 C 
ATOM     15  C5  NGI     0      -2.743   1.419  -9.286  0.00  0.00    +0.000 C 
ATOM     16  C6  NGI     0      -2.561   2.563  -8.264  0.00  0.00    +0.000 C 
ATOM     17  C7  NGI     0      -2.209   1.836  -6.947  0.00  0.00    +0.000 C 
BRANCH  14  20
ATOM     18  N1  NGI     0      -2.640  -1.825  -6.206  0.00  0.00    +0.000 N 
ATOM     19  O1  NGI     0      -3.373   0.058  -5.290  0.00  0.00    +0.000 OA
ATOM     20  C3  NGI     0      -2.785  -0.485  -6.202  0.00  0.00    +0.000 C 
ATOM     21  HN1 NGI     0      -2.170  -2.259  -6.936  0.00  0.00    +0.000 HD
BRANCH  18  23
ATOM     22  C1  NGI     0      -2.047  -3.187  -4.264  0.00  0.00    +0.000 C 
ATOM     23  C2  NGI     0      -3.191  -2.625  -5.110  0.00  0.00    +0.000 C 
ENDBRANCH  18  23
ENDBRANCH  14  20
BRANCH  16  24
ATOM     24  O3  NGI     0      -1.493   3.424  -8.662  0.00  0.00    +0.000 OA
ATOM     25  HO3 NGI     0      -1.139   3.232  -9.541  0.00  0.00    +0.000 HD
ENDBRANCH  16  24
BRANCH  17  26
ATOM     26  O4  NGI     0      -0.912   2.228  -6.490  0.00  0.00    +0.000 OA
ATOM     27  HO4 NGI     0      -0.914   2.665  -5.627  0.00  0.00    +0.000 HD
ENDBRANCH  17  26
ENDBRANCH   1  15
BRANCH   8  28
ATOM     28  N4  NGI     0      -6.549   3.482 -13.541  0.00  0.00    +0.000 NA
ATOM     29  HN4 NGI     0      -6.660   2.949 -14.343  0.00  0.00    +0.000 HD
ATOM     30 HN4A NGI     0      -7.292   4.000 -13.197  0.00  0.00    +0.000 HD
ENDBRANCH   8  28
BRANCH   4  31
ATOM     31  C12 NGI     0      -2.533   6.193 -14.170  0.00  0.00    +0.000 C 
BRANCH  31  32
ATOM     32  C13 NGI     0      -2.868   5.389 -15.428  0.00  0.00    +0.000 C 
BRANCH  32  33
ATOM     33  C14 NGI     0      -3.885   6.140 -16.248  0.00  0.00    +0.000 A 
ATOM     34  C15 NGI     0      -3.923   7.521 -16.206  0.00  0.00    +0.000 A 
ATOM     35  C16 NGI     0      -4.857   8.209 -16.959  0.00  0.00    +0.000 A 
ATOM     36  C17 NGI     0      -5.752   7.516 -17.753  0.00  0.00    +0.000 A 
ATOM     37  C21 NGI     0      -5.713   6.136 -17.795  0.00  0.00    +0.000 A 
ATOM     38  C22 NGI     0      -4.776   5.447 -17.047  0.00  0.00    +0.000 A 
BRANCH  36  39
ATOM     39  C18 NGI     0      -6.768   8.268 -18.573  0.00  0.00    +0.000 C 
BRANCH  39  40
ATOM     40  C19 NGI     0      -6.562   7.952 -20.055  0.00  0.00    +0.000 C 
BRANCH  40  42
ATOM     41  O6  NGI     0      -5.239   9.836 -20.559  0.00  0.00    +0.000 OA
ATOM     42  C20 NGI     0      -5.308   8.629 -20.544  0.00  0.00    +0.000 C 
BRANCH  42  43
ATOM     43  O5  NGI     0      -4.266   7.892 -20.961  0.00  0.00    +0.000 OA
ATOM     44  HO5 NGI     0      -4.022   7.131 -20.417  0.00  0.00    +0.000 HD
ENDBRANCH  42  43
ENDBRANCH  40  42
ENDBRANCH  39  40
ENDBRANCH  36  39
ENDBRANCH  32  33
ENDBRANCH  31  32
ENDBRANCH   4  31
TORSDOF 13
ENDMDL
MODEL 9
REMARK VINA RESULT:      -7.7      3.324     11.796
REMARK  Name = NGI.pdb
REMARK  14 active torsions:
REMARK  status: ('A' for Active; 'I' for Inactive)
REMARK    1  A    between atoms: C1_1  and  C2_4
REMARK    2  A    between atoms: N1_2  and  C2_4
REMARK    3  A    between atoms: N2_5  and  C5_13
REMARK    4  A    between atoms: C3_7  and  C4_10
REMARK    5  A    between atoms: O3_9  and  C6_16
REMARK    6  A    between atoms: N4_11  and  C10_23
REMARK    7  A    between atoms: O4_12  and  C7_19
REMARK    8  A    between atoms: O5_15  and  C20_33
REMARK    9  A    between atoms: N6_17  and  C12_25
REMARK   10  A    between atoms: C12_25  and  C13_26
REMARK   11  A    between atoms: C13_26  and  C14_27
REMARK   12  A    between atoms: C17_30  and  C18_31
REMARK   13  A    between atoms: C18_31  and  C19_32
REMARK   14  A    between atoms: C19_32  and  C20_33
REMARK                            x       y       z     vdW  Elec       q    Type
REMARK                         _______ _______ _______ _____ _____    ______ ____
ROOT
ATOM      1  N2  NGI     0      -4.000   3.852 -12.795  0.00  0.00    +0.000 N 
ATOM      2  N3  NGI     0      -6.091   3.467 -13.289  0.00  0.00    +0.000 NA
ATOM      3  N5  NGI     0      -5.733   6.512 -15.315  0.00  0.00    +0.000 NA
ATOM      4  N6  NGI     0      -3.805   7.813 -15.537  0.00  0.00    +0.000 N 
ATOM      5  N7  NGI     0      -3.796   5.911 -14.188  0.00  0.00    +0.000 N 
ATOM      6  C8  NGI     0      -5.074   3.034 -12.603  0.00  0.00    +0.000 A 
ATOM      7  C9  NGI     0      -5.737   4.593 -13.956  0.00  0.00    +0.000 A 
ATOM      8  C10 NGI     0      -6.402   5.474 -14.828  0.00  0.00    +0.000 C 
ATOM      9  C11 NGI     0      -4.459   6.714 -15.003  0.00  0.00    +0.000 C 
ATOM     10  C23 NGI     0      -4.391   4.851 -13.650  0.00  0.00    +0.000 A 
ATOM     11  HN6 NGI     0      -2.875   7.976 -15.321  0.00  0.00    +0.000 HD
ATOM     12  H   NGI     0      -2.852   6.099 -13.979  0.00  0.00    +0.000 HD
ENDROOT
BRANCH   1  15
ATOM     13  O2  NGI     0      -2.723   2.752 -11.101  0.00  0.00    +0.000 OA
ATOM     14  C4  NGI     0      -1.559   3.038 -10.297  0.00  0.00    +0.000 C 
ATOM     15  C5  NGI     0      -2.673   3.696 -12.193  0.00  0.00    +0.000 C 
ATOM     16  C6  NGI     0      -2.215   5.023 -11.548  0.00  0.00    +0.000 C 
ATOM     17  C7  NGI     0      -1.466   4.580 -10.271  0.00  0.00    +0.000 C 
BRANCH  14  20
ATOM     18  N1  NGI     0      -2.423   1.357  -8.701  0.00  0.00    +0.000 N 
ATOM     19  O1  NGI     0      -1.271   3.100  -7.955  0.00  0.00    +0.000 OA
ATOM     20  C3  NGI     0      -1.740   2.501  -8.900  0.00  0.00    +0.000 C 
ATOM     21  HN1 NGI     0      -2.798   0.878  -9.457  0.00  0.00    +0.000 HD
BRANCH  18  23
ATOM     22  C1  NGI     0      -1.759  -0.431  -7.171  0.00  0.00    +0.000 C 
ATOM     23  C2  NGI     0      -2.598   0.836  -7.343  0.00  0.00    +0.000 C 
ENDBRANCH  18  23
ENDBRANCH  14  20
BRANCH  16  24
ATOM     24  O3  NGI     0      -1.336   5.729 -12.425  0.00  0.00    +0.000 OA
ATOM     25  HO3 NGI     0      -0.525   5.248 -12.640  0.00  0.00    +0.000 HD
ENDBRANCH  16  24
BRANCH  17  26
ATOM     26  O4  NGI     0      -0.101   5.000 -10.321  0.00  0.00    +0.000 OA
ATOM     27  HO4 NGI     0       0.510   4.319 -10.637  0.00  0.00    +0.000 HD
ENDBRANCH  17  26
ENDBRANCH   1  15
BRANCH   8  28
ATOM     28  N4  NGI     0      -7.725   5.261 -15.171  0.00  0.00    +0.000 NA
ATOM     29  HN4 NGI     0      -8.434   5.630 -14.620  0.00  0.00    +0.000 HD
ATOM     30 HN4A NGI     0      -7.946   4.744 -15.961  0.00  0.00    +0.000 HD
ENDBRANCH   8  28
BRANCH   4  31
ATOM     31  C12 NGI     0      -4.521   8.727 -16.431  0.00  0.00    +0.000 C 
BRANCH  31  32
ATOM     32  C13 NGI     0      -4.199   8.375 -17.885  0.00  0.00    +0.000 C 
BRANCH  32  33
ATOM     33  C14 NGI     0      -5.445   7.876 -18.569  0.00  0.00    +0.000 A 
ATOM     34  C15 NGI     0      -6.685   8.339 -18.170  0.00  0.00    +0.000 A 
ATOM     35  C16 NGI     0      -7.829   7.881 -18.797  0.00  0.00    +0.000 A 
ATOM     36  C17 NGI     0      -7.732   6.959 -19.824  0.00  0.00    +0.000 A 
ATOM     37  C21 NGI     0      -6.493   6.497 -20.223  0.00  0.00    +0.000 A 
ATOM     38  C22 NGI     0      -5.348   6.959 -19.600  0.00  0.00    +0.000 A 
BRANCH  36  39
ATOM     39  C18 NGI     0      -8.979   6.461 -20.507  0.00  0.00    +0.000 C 
BRANCH  39  40
ATOM     40  C19 NGI     0      -9.856   5.723 -19.495  0.00  0.00    +0.000 C 
BRANCH  40  42
ATOM     41  O6  NGI     0      -9.090   3.536 -19.927  0.00  0.00    +0.000 OA
ATOM     42  C20 NGI     0      -9.196   4.423 -19.113  0.00  0.00    +0.000 C 
BRANCH  42  43
ATOM     43  O5  NGI     0      -8.725   4.250 -17.867  0.00  0.00    +0.000 OA
ATOM     44  HO5 NGI     0      -7.910   4.717 -17.638  0.00  0.00    +0.000 HD
ENDBRANCH  42  43
ENDBRANCH  40  42
ENDBRANCH  39  40
ENDBRANCH  36  39
ENDBRANCH  32  33
ENDBRANCH  31  32
ENDBRANCH   4  31
TORSDOF 13
ENDMDL
MODEL 10
REMARK VINA RESULT:      -7.0      3.534     11.442
REMARK  Name = NGI.pdb
REMARK  14 active torsions:
REMARK  status: ('A' for Active; 'I' for Inactive)
REMARK    1  A    between atoms: C1_1  and  C2_4
REMARK    2  A    between atoms: N1_2  and  C2_4
REMARK    3  A    between atoms: N2_5  and  C5_13
REMARK    4  A    between atoms: C3_7  and  C4_10
REMARK    5  A    between atoms: O3_9  and  C6_16
REMARK    6  A    between atoms: N4_11  and  C10_23
REMARK    7  A    between atoms: O4_12  and  C7_19
REMARK    8  A    between atoms: O5_15  and  C20_33
REMARK    9  A    between atoms: N6_17  and  C12_25
REMARK   10  A    between atoms: C12_25  and  C13_26
REMARK   11  A    between atoms: C13_26  and  C14_27
REMARK   12  A    between atoms: C17_30  and  C18_31
REMARK   13  A    between atoms: C18_31  and  C19_32
REMARK   14  A    between atoms: C19_32  and  C20_33
REMARK                            x       y       z     vdW  Elec       q    Type
REMARK                         _______ _______ _______ _____ _____    ______ ____
ROOT
ATOM      1  N2  NGI     0      -0.647   2.637  -9.456  0.00  0.00    +0.000 N 
ATOM      2  N3  NGI     0       0.507   4.183 -10.478  0.00  0.00    +0.000 NA
ATOM      3  N5  NGI     0      -2.583   4.610 -12.422  0.00  0.00    +0.000 NA
ATOM      4  N6  NGI     0      -4.569   3.410 -12.152  0.00  0.00    +0.000 N 
ATOM      5  N7  NGI     0      -2.728   2.963 -10.793  0.00  0.00    +0.000 N 
ATOM      6  C8  NGI     0       0.552   3.283  -9.540  0.00  0.00    +0.000 A 
ATOM      7  C9  NGI     0      -0.718   4.167 -11.060  0.00  0.00    +0.000 A 
ATOM      8  C10 NGI     0      -1.327   4.895 -12.098  0.00  0.00    +0.000 C 
ATOM      9  C11 NGI     0      -3.261   3.670 -11.776  0.00  0.00    +0.000 C 
ATOM     10  C23 NGI     0      -1.473   3.178 -10.409  0.00  0.00    +0.000 A 
ATOM     11  HN6 NGI     0      -5.080   2.728 -11.691  0.00  0.00    +0.000 HD
ATOM     12  H   NGI     0      -3.264   2.272 -10.342  0.00  0.00    +0.000 HD
ENDROOT
BRANCH   1  15
ATOM     13  O2  NGI     0      -2.074   0.765  -9.048  0.00  0.00    +0.000 OA
ATOM     14  C4  NGI     0      -2.643   0.096  -7.902  0.00  0.00    +0.000 C 
ATOM     15  C5  NGI     0      -0.988   1.561  -8.524  0.00  0.00    +0.000 C 
ATOM     16  C6  NGI     0      -1.530   2.146  -7.201  0.00  0.00    +0.000 C 
ATOM     17  C7  NGI     0      -2.644   1.160  -6.782  0.00  0.00    +0.000 C 
BRANCH  14  20
ATOM     18  N1  NGI     0      -4.661   0.050  -9.332  0.00  0.00    +0.000 N 
ATOM     19  O1  NGI     0      -4.635  -1.075  -7.420  0.00  0.00    +0.000 OA
ATOM     20  C3  NGI     0      -4.050  -0.352  -8.200  0.00  0.00    +0.000 C 
ATOM     21  HN1 NGI     0      -4.194   0.628  -9.956  0.00  0.00    +0.000 HD
BRANCH  18  23
ATOM     22  C1  NGI     0      -6.553   0.360 -10.849  0.00  0.00    +0.000 C 
ATOM     23  C2  NGI     0      -6.029  -0.386  -9.621  0.00  0.00    +0.000 C 
ENDBRANCH  18  23
ENDBRANCH  14  20
BRANCH  16  24
ATOM     24  O3  NGI     0      -0.500   2.186  -6.212  0.00  0.00    +0.000 OA
ATOM     25  HO3 NGI     0       0.396   2.162  -6.576  0.00  0.00    +0.000 HD
ENDBRANCH  16  24
BRANCH  17  26
ATOM     26  O4  NGI     0      -2.335   0.562  -5.522  0.00  0.00    +0.000 OA
ATOM     27  HO4 NGI     0      -2.363  -0.405  -5.528  0.00  0.00    +0.000 HD
ENDBRANCH  17  26
ENDBRANCH   1  15
BRANCH   8  28
ATOM     28  N4  NGI     0      -0.632   5.886 -12.767  0.00  0.00    +0.000 NA
ATOM     29  HN4 NGI     0      -1.086   6.701 -13.033  0.00  0.00    +0.000 HD
ATOM     30 HN4A NGI     0       0.309   5.767 -12.970  0.00  0.00    +0.000 HD
ENDBRANCH   8  28
BRANCH   4  31
ATOM     31  C12 NGI     0      -5.180   4.168 -13.247  0.00  0.00    +0.000 C 
BRANCH  31  32
ATOM     32  C13 NGI     0      -4.721   3.590 -14.587  0.00  0.00    +0.000 C 
BRANCH  32  33
ATOM     33  C14 NGI     0      -4.805   4.655 -15.650  0.00  0.00    +0.000 A 
ATOM     34  C15 NGI     0      -5.263   4.335 -16.914  0.00  0.00    +0.000 A 
ATOM     35  C16 NGI     0      -5.340   5.312 -17.889  0.00  0.00    +0.000 A 
ATOM     36  C17 NGI     0      -4.958   6.609 -17.599  0.00  0.00    +0.000 A 
ATOM     37  C21 NGI     0      -4.500   6.928 -16.336  0.00  0.00    +0.000 A 
ATOM     38  C22 NGI     0      -4.429   5.953 -15.359  0.00  0.00    +0.000 A 
BRANCH  36  39
ATOM     39  C18 NGI     0      -5.042   7.673 -18.663  0.00  0.00    +0.000 C 
BRANCH  39  40
ATOM     40  C19 NGI     0      -5.395   9.014 -18.016  0.00  0.00    +0.000 C 
BRANCH  40  42
ATOM     41  O6  NGI     0      -4.263  11.041 -17.611  0.00  0.00    +0.000 OA
ATOM     42  C20 NGI     0      -4.224   9.954 -18.138  0.00  0.00    +0.000 C 
BRANCH  42  43
ATOM     43  O5  NGI     0      -3.135   9.583 -18.831  0.00  0.00    +0.000 OA
ATOM     44  HO5 NGI     0      -2.756  10.236 -19.434  0.00  0.00    +0.000 HD
ENDBRANCH  42  43
ENDBRANCH  40  42
ENDBRANCH  39  40
ENDBRANCH  36  39
ENDBRANCH  32  33
ENDBRANCH  31  32
ENDBRANCH   4  31
TORSDOF 13
ENDMDL
MODEL 11
REMARK VINA RESULT:      -6.8      3.284      4.928
REMARK  Name = NGI.pdb
REMARK  14 active torsions:
REMARK  status: ('A' for Active; 'I' for Inactive)
REMARK    1  A    between atoms: C1_1  and  C2_4
REMARK    2  A    between atoms: N1_2  and  C2_4
REMARK    3  A    between atoms: N2_5  and  C5_13
REMARK    4  A    between atoms: C3_7  and  C4_10
REMARK    5  A    between atoms: O3_9  and  C6_16
REMARK    6  A    between atoms: N4_11  and  C10_23
REMARK    7  A    between atoms: O4_12  and  C7_19
REMARK    8  A    between atoms: O5_15  and  C20_33
REMARK    9  A    between atoms: N6_17  and  C12_25
REMARK   10  A    between atoms: C12_25  and  C13_26
REMARK   11  A    between atoms: C13_26  and  C14_27
REMARK   12  A    between atoms: C17_30  and  C18_31
REMARK   13  A    between atoms: C18_31  and  C19_32
REMARK   14  A    between atoms: C19_32  and  C20_33
REMARK                            x       y       z     vdW  Elec       q    Type
REMARK                         _______ _______ _______ _____ _____    ______ ____
ROOT
ATOM      1  N2  NGI     0      -5.495   1.918 -12.510  0.00  0.00    +0.000 N 
ATOM      2  N3  NGI     0      -6.329   0.159 -11.521  0.00  0.00    +0.000 NA
ATOM      3  N5  NGI     0      -4.194   1.239  -8.731  0.00  0.00    +0.000 NA
ATOM      4  N6  NGI     0      -2.796   3.110  -8.697  0.00  0.00    +0.000 N 
ATOM      5  N7  NGI     0      -4.066   2.621 -10.590  0.00  0.00    +0.000 N 
ATOM      6  C8  NGI     0      -6.336   0.850 -12.623  0.00  0.00    +0.000 A 
ATOM      7  C9  NGI     0      -5.479   0.734 -10.635  0.00  0.00    +0.000 A 
ATOM      8  C10 NGI     0      -5.074   0.438  -9.320  0.00  0.00    +0.000 C 
ATOM      9  C11 NGI     0      -3.712   2.306  -9.356  0.00  0.00    +0.000 C 
ATOM     10  C23 NGI     0      -4.937   1.870 -11.258  0.00  0.00    +0.000 A 
ATOM     11  HN6 NGI     0      -2.434   3.893  -9.137  0.00  0.00    +0.000 HD
ATOM     12  H   NGI     0      -3.681   3.420 -11.019  0.00  0.00    +0.000 HD
ENDROOT
BRANCH   1  15
ATOM     13  O2  NGI     0      -3.975   3.591 -13.283  0.00  0.00    +0.000 OA
ATOM     14  C4  NGI     0      -4.050   4.838 -14.007  0.00  0.00    +0.000 C 
ATOM     15  C5  NGI     0      -5.233   2.927 -13.538  0.00  0.00    +0.000 C 
ATOM     16  C6  NGI     0      -6.292   4.049 -13.474  0.00  0.00    +0.000 C 
ATOM     17  C7  NGI     0      -5.496   5.335 -13.789  0.00  0.00    +0.000 C 
BRANCH  14  20
ATOM     18  N1  NGI     0      -2.171   5.443 -12.514  0.00  0.00    +0.000 N 
ATOM     19  O1  NGI     0      -3.076   6.981 -13.833  0.00  0.00    +0.000 OA
ATOM     20  C3  NGI     0      -3.064   5.831 -13.446  0.00  0.00    +0.000 C 
ATOM     21  HN1 NGI     0      -2.162   4.523 -12.205  0.00  0.00    +0.000 HD
BRANCH  18  23
ATOM     22  C1  NGI     0      -1.156   6.266 -10.448  0.00  0.00    +0.000 C 
ATOM     23  C2  NGI     0      -1.215   6.409 -11.970  0.00  0.00    +0.000 C 
ENDBRANCH  18  23
ENDBRANCH  14  20
BRANCH  16  24
ATOM     24  O3  NGI     0      -7.308   3.836 -14.456  0.00  0.00    +0.000 OA
ATOM     25  HO3 NGI     0      -7.090   4.190 -15.330  0.00  0.00    +0.000 HD
ENDBRANCH  16  24
BRANCH  17  26
ATOM     26  O4  NGI     0      -5.996   5.956 -14.976  0.00  0.00    +0.000 OA
ATOM     27  HO4 NGI     0      -6.951   6.110 -14.967  0.00  0.00    +0.000 HD
ENDBRANCH  17  26
ENDBRANCH   1  15
BRANCH   8  28
ATOM     28  N4  NGI     0      -5.583  -0.663  -8.657  0.00  0.00    +0.000 NA
ATOM     29  HN4 NGI     0      -5.588  -1.531  -9.091  0.00  0.00    +0.000 HD
ATOM     30 HN4A NGI     0      -5.936  -0.569  -7.759  0.00  0.00    +0.000 HD
ENDBRANCH   8  28
BRANCH   4  31
ATOM     31  C12 NGI     0      -2.376   2.776  -7.333  0.00  0.00    +0.000 C 
BRANCH  31  32
ATOM     32  C13 NGI     0      -1.212   1.785  -7.386  0.00  0.00    +0.000 C 
BRANCH  32  33
ATOM     33  C14 NGI     0      -1.648   0.465  -6.804  0.00  0.00    +0.000 A 
ATOM     34  C15 NGI     0      -2.837   0.378  -6.104  0.00  0.00    +0.000 A 
ATOM     35  C16 NGI     0      -3.237  -0.833  -5.569  0.00  0.00    +0.000 A 
ATOM     36  C17 NGI     0      -2.447  -1.956  -5.734  0.00  0.00    +0.000 A 
ATOM     37  C21 NGI     0      -1.259  -1.868  -6.434  0.00  0.00    +0.000 A 
ATOM     38  C22 NGI     0      -0.862  -0.660  -6.974  0.00  0.00    +0.000 A 
BRANCH  36  39
ATOM     39  C18 NGI     0      -2.884  -3.275  -5.151  0.00  0.00    +0.000 C 
BRANCH  39  40
ATOM     40  C19 NGI     0      -2.488  -3.337  -3.676  0.00  0.00    +0.000 C 
BRANCH  40  42
ATOM     41  O6  NGI     0      -0.745  -4.326  -2.435  0.00  0.00    +0.000 OA
ATOM     42  C20 NGI     0      -1.241  -4.171  -3.525  0.00  0.00    +0.000 C 
BRANCH  42  43
ATOM     43  O5  NGI     0      -0.683  -4.743  -4.604  0.00  0.00    +0.000 OA
ATOM     44  HO5 NGI     0      -1.272  -4.956  -5.342  0.00  0.00    +0.000 HD
ENDBRANCH  42  43
ENDBRANCH  40  42
ENDBRANCH  39  40
ENDBRANCH  36  39
ENDBRANCH  32  33
ENDBRANCH  31  32
ENDBRANCH   4  31
TORSDOF 13
ENDMDL
MODEL 12
REMARK VINA RESULT:      -6.5      2.369      3.689
REMARK  Name = NGI.pdb
REMARK  14 active torsions:
REMARK  status: ('A' for Active; 'I' for Inactive)
REMARK    1  A    between atoms: C1_1  and  C2_4
REMARK    2  A    between atoms: N1_2  and  C2_4
REMARK    3  A    between atoms: N2_5  and  C5_13
REMARK    4  A    between atoms: C3_7  and  C4_10
REMARK    5  A    between atoms: O3_9  and  C6_16
REMARK    6  A    between atoms: N4_11  and  C10_23
REMARK    7  A    between atoms: O4_12  and  C7_19
REMARK    8  A    between atoms: O5_15  and  C20_33
REMARK    9  A    between atoms: N6_17  and  C12_25
REMARK   10  A    between atoms: C12_25  and  C13_26
REMARK   11  A    between atoms: C13_26  and  C14_27
REMARK   12  A    between atoms: C17_30  and  C18_31
REMARK   13  A    between atoms: C18_31  and  C19_32
REMARK   14  A    between atoms: C19_32  and  C20_33
REMARK                            x       y       z     vdW  Elec       q    Type
REMARK                         _______ _______ _______ _____ _____    ______ ____
ROOT
ATOM      1  N2  NGI     0      -5.502   3.346 -13.429  0.00  0.00    +0.000 N 
ATOM      2  N3  NGI     0      -5.988   2.136 -11.678  0.00  0.00    +0.000 NA
ATOM      3  N5  NGI     0      -2.643   3.170 -10.560  0.00  0.00    +0.000 NA
ATOM      4  N6  NGI     0      -1.158   4.551 -11.719  0.00  0.00    +0.000 N 
ATOM      5  N7  NGI     0      -3.240   4.030 -12.631  0.00  0.00    +0.000 N 
ATOM      6  C8  NGI     0      -6.432   2.549 -12.829  0.00  0.00    +0.000 A 
ATOM      7  C9  NGI     0      -4.745   2.635 -11.470  0.00  0.00    +0.000 A 
ATOM      8  C10 NGI     0      -3.801   2.531 -10.432  0.00  0.00    +0.000 C 
ATOM      9  C11 NGI     0      -2.381   3.905 -11.634  0.00  0.00    +0.000 C 
ATOM     10  C23 NGI     0      -4.420   3.419 -12.589  0.00  0.00    +0.000 A 
ATOM     11  HN6 NGI     0      -0.949   5.092 -12.495  0.00  0.00    +0.000 HD
ATOM     12  H   NGI     0      -3.004   4.582 -13.412  0.00  0.00    +0.000 HD
ENDROOT
BRANCH   1  15
ATOM     13  O2  NGI     0      -4.555   4.939 -14.936  0.00  0.00    +0.000 OA
ATOM     14  C4  NGI     0      -5.027   5.846 -15.955  0.00  0.00    +0.000 C 
ATOM     15  C5  NGI     0      -5.632   3.999 -14.733  0.00  0.00    +0.000 C 
ATOM     16  C6  NGI     0      -6.918   4.854 -14.781  0.00  0.00    +0.000 C 
ATOM     17  C7  NGI     0      -6.510   6.098 -15.603  0.00  0.00    +0.000 C 
BRANCH  14  20
ATOM     18  N1  NGI     0      -4.783   8.262 -16.429  0.00  0.00    +0.000 N 
ATOM     19  O1  NGI     0      -3.148   7.164 -15.407  0.00  0.00    +0.000 OA
ATOM     20  C3  NGI     0      -4.252   7.138 -15.910  0.00  0.00    +0.000 C 
ATOM     21  HN1 NGI     0      -5.666   8.240 -16.832  0.00  0.00    +0.000 HD
BRANCH  18  23
ATOM     22  C1  NGI     0      -3.933  10.103 -17.795  0.00  0.00    +0.000 C 
ATOM     23  C2  NGI     0      -4.028   9.516 -16.386  0.00  0.00    +0.000 C 
ENDBRANCH  18  23
ENDBRANCH  14  20
BRANCH  16  24
ATOM     24  O3  NGI     0      -7.969   4.143 -15.437  0.00  0.00    +0.000 OA
ATOM     25  HO3 NGI     0      -7.697   3.707 -16.256  0.00  0.00    +0.000 HD
ENDBRANCH  16  24
BRANCH  17  26
ATOM     26  O4  NGI     0      -7.298   6.192 -16.791  0.00  0.00    +0.000 OA
ATOM     27  HO4 NGI     0      -6.837   6.598 -17.538  0.00  0.00    +0.000 HD
ENDBRANCH  17  26
ENDBRANCH   1  15
BRANCH   8  28
ATOM     28  N4  NGI     0      -4.073   1.780  -9.303  0.00  0.00    +0.000 NA
ATOM     29  HN4 NGI     0      -4.935   1.858  -8.866  0.00  0.00    +0.000 HD
ATOM     30 HN4A NGI     0      -3.403   1.176  -8.949  0.00  0.00    +0.000 HD
ENDBRANCH   8  28
BRANCH   4  31
ATOM     31  C12 NGI     0      -0.182   4.418 -10.634  0.00  0.00    +0.000 C 
BRANCH  31  32
ATOM     32  C13 NGI     0       0.277   2.961 -10.538  0.00  0.00    +0.000 C 
BRANCH  32  33
ATOM     33  C14 NGI     0      -0.272   2.344  -9.278  0.00  0.00    +0.000 A 
ATOM     34  C15 NGI     0      -0.336   0.969  -9.153  0.00  0.00    +0.000 A 
ATOM     35  C16 NGI     0      -0.840   0.402  -7.997  0.00  0.00    +0.000 A 
ATOM     36  C17 NGI     0      -1.282   1.211  -6.966  0.00  0.00    +0.000 A 
ATOM     37  C21 NGI     0      -1.218   2.586  -7.091  0.00  0.00    +0.000 A 
ATOM     38  C22 NGI     0      -0.708   3.153  -8.244  0.00  0.00    +0.000 A 
BRANCH  36  39
ATOM     39  C18 NGI     0      -1.831   0.593  -5.707  0.00  0.00    +0.000 C 
BRANCH  39  40
ATOM     40  C19 NGI     0      -2.891  -0.448  -6.069  0.00  0.00    +0.000 C 
BRANCH  40  42
ATOM     41  O6  NGI     0      -1.563  -1.905  -4.779  0.00  0.00    +0.000 OA
ATOM     42  C20 NGI     0      -2.438  -1.809  -5.607  0.00  0.00    +0.000 C 
BRANCH  42  43
ATOM     43  O5  NGI     0      -3.007  -2.913  -6.115  0.00  0.00    +0.000 OA
ATOM     44  HO5 NGI     0      -2.417  -3.642  -6.350  0.00  0.00    +0.000 HD
ENDBRANCH  42  43
ENDBRANCH  40  42
ENDBRANCH  39  40
ENDBRANCH  36  39
ENDBRANCH  32  33
ENDBRANCH  31  32
ENDBRANCH   4  31
TORSDOF 13
ENDMDL
MODEL 13
REMARK VINA RESULT:      -6.3      3.100     11.529
REMARK  Name = NGI.pdb
REMARK  14 active torsions:
REMARK  status: ('A' for Active; 'I' for Inactive)
REMARK    1  A    between atoms: C1_1  and  C2_4
REMARK    2  A    between atoms: N1_2  and  C2_4
REMARK    3  A    between atoms: N2_5  and  C5_13
REMARK    4  A    between atoms: C3_7  and  C4_10
REMARK    5  A    between atoms: O3_9  and  C6_16
REMARK    6  A    between atoms: N4_11  and  C10_23
REMARK    7  A    between atoms: O4_12  and  C7_19
REMARK    8  A    between atoms: O5_15  and  C20_33
REMARK    9  A    between atoms: N6_17  and  C12_25
REMARK   10  A    between atoms: C12_25  and  C13_26
REMARK   11  A    between atoms: C13_26  and  C14_27
REMARK   12  A    between atoms: C17_30  and  C18_31
REMARK   13  A    between atoms: C18_31  and  C19_32
REMARK   14  A    between atoms: C19_32  and  C20_33
REMARK                            x       y       z     vdW  Elec       q    Type
REMARK                         _______ _______ _______ _____ _____    ______ ____
ROOT
ATOM      1  N2  NGI     0      -5.228   1.793 -10.516  0.00  0.00    +0.000 N 
ATOM      2  N3  NGI     0      -6.656   1.688 -12.164  0.00  0.00    +0.000 NA
ATOM      3  N5  NGI     0      -4.486   4.257 -13.648  0.00  0.00    +0.000 NA
ATOM      4  N6  NGI     0      -2.555   5.161 -12.695  0.00  0.00    +0.000 N 
ATOM      5  N7  NGI     0      -3.777   3.531 -11.561  0.00  0.00    +0.000 N 
ATOM      6  C8  NGI     0      -6.366   1.208 -10.990  0.00  0.00    +0.000 A 
ATOM      7  C9  NGI     0      -5.729   2.614 -12.514  0.00  0.00    +0.000 A 
ATOM      8  C10 NGI     0      -5.533   3.439 -13.636  0.00  0.00    +0.000 C 
ATOM      9  C11 NGI     0      -3.631   4.290 -12.634  0.00  0.00    +0.000 C 
ATOM     10  C23 NGI     0      -4.801   2.689 -11.463  0.00  0.00    +0.000 A 
ATOM     11  HN6 NGI     0      -1.920   5.200 -11.965  0.00  0.00    +0.000 HD
ATOM     12  H   NGI     0      -3.121   3.591 -10.829  0.00  0.00    +0.000 HD
ENDROOT
BRANCH   1  15
ATOM     13  O2  NGI     0      -3.428   2.366  -9.053  0.00  0.00    +0.000 OA
ATOM     14  C4  NGI     0      -2.617   1.703  -8.059  0.00  0.00    +0.000 C 
ATOM     15  C5  NGI     0      -4.583   1.517  -9.230  0.00  0.00    +0.000 C 
ATOM     16  C6  NGI     0      -4.023   0.077  -9.207  0.00  0.00    +0.000 C 
ATOM     17  C7  NGI     0      -2.699   0.203  -8.419  0.00  0.00    +0.000 C 
BRANCH  14  20
ATOM     18  N1  NGI     0      -0.594   2.329  -9.339  0.00  0.00    +0.000 N 
ATOM     19  O1  NGI     0      -0.580   2.439  -7.123  0.00  0.00    +0.000 OA
ATOM     20  C3  NGI     0      -1.191   2.183  -8.139  0.00  0.00    +0.000 C 
ATOM     21  HN1 NGI     0      -1.083   2.124 -10.151  0.00  0.00    +0.000 HD
BRANCH  18  23
ATOM     22  C1  NGI     0       1.385   2.413 -10.772  0.00  0.00    +0.000 C 
ATOM     23  C2  NGI     0       0.792   2.795  -9.415  0.00  0.00    +0.000 C 
ENDBRANCH  18  23
ENDBRANCH  14  20
BRANCH  16  24
ATOM     24  O3  NGI     0      -4.926  -0.801  -8.532  0.00  0.00    +0.000 OA
ATOM     25  HO3 NGI     0      -5.819  -0.444  -8.430  0.00  0.00    +0.000 HD
ENDBRANCH  16  24
BRANCH  17  26
ATOM     26  O4  NGI     0      -2.745  -0.595  -7.234  0.00  0.00    +0.000 OA
ATOM     27  HO4 NGI     0      -1.897  -0.664  -6.773  0.00  0.00    +0.000 HD
ENDBRANCH  17  26
ENDBRANCH   1  15
BRANCH   8  28
ATOM     28  N4  NGI     0      -6.411   3.399 -14.703  0.00  0.00    +0.000 NA
ATOM     29  HN4 NGI     0      -6.592   2.557 -15.150  0.00  0.00    +0.000 HD
ATOM     30 HN4A NGI     0      -6.845   4.211 -15.006  0.00  0.00    +0.000 HD
ENDBRANCH   8  28
BRANCH   4  31
ATOM     31  C12 NGI     0      -2.377   6.024 -13.867  0.00  0.00    +0.000 C 
BRANCH  31  32
ATOM     32  C13 NGI     0      -3.462   7.103 -13.875  0.00  0.00    +0.000 C 
BRANCH  32  33
ATOM     33  C14 NGI     0      -3.963   7.300 -15.283  0.00  0.00    +0.000 A 
ATOM     34  C15 NGI     0      -4.129   8.577 -15.785  0.00  0.00    +0.000 A 
ATOM     35  C16 NGI     0      -4.590   8.757 -17.076  0.00  0.00    +0.000 A 
ATOM     36  C17 NGI     0      -4.886   7.660 -17.864  0.00  0.00    +0.000 A 
ATOM     37  C21 NGI     0      -4.721   6.384 -17.361  0.00  0.00    +0.000 A 
ATOM     38  C22 NGI     0      -4.254   6.203 -16.073  0.00  0.00    +0.000 A 
BRANCH  36  39
ATOM     39  C18 NGI     0      -5.388   7.858 -19.271  0.00  0.00    +0.000 C 
BRANCH  39  40
ATOM     40  C19 NGI     0      -5.682   6.497 -19.904  0.00  0.00    +0.000 C 
BRANCH  40  42
ATOM     41  O6  NGI     0      -7.571   5.624 -21.010  0.00  0.00    +0.000 OA
ATOM     42  C20 NGI     0      -7.163   6.365 -20.146  0.00  0.00    +0.000 C 
BRANCH  42  43
ATOM     43  O5  NGI     0      -8.030   7.070 -19.402  0.00  0.00    +0.000 OA
ATOM     44  HO5 NGI     0      -7.678   7.508 -18.615  0.00  0.00    +0.000 HD
ENDBRANCH  42  43
ENDBRANCH  40  42
ENDBRANCH  39  40
ENDBRANCH  36  39
ENDBRANCH  32  33
ENDBRANCH  31  32
ENDBRANCH   4  31
TORSDOF 13
ENDMDL
MODEL 14
REMARK VINA RESULT:      -6.3      2.434      3.468
REMARK  Name = NGI.pdb
REMARK  14 active torsions:
REMARK  status: ('A' for Active; 'I' for Inactive)
REMARK    1  A    between atoms: C1_1  and  C2_4
REMARK    2  A    between atoms: N1_2  and  C2_4
REMARK    3  A    between atoms: N2_5  and  C5_13
REMARK    4  A    between atoms: C3_7  and  C4_10
REMARK    5  A    between atoms: O3_9  and  C6_16
REMARK    6  A    between atoms: N4_11  and  C10_23
REMARK    7  A    between atoms: O4_12  and  C7_19
REMARK    8  A    between atoms: O5_15  and  C20_33
REMARK    9  A    between atoms: N6_17  and  C12_25
REMARK   10  A    between atoms: C12_25  and  C13_26
REMARK   11  A    between atoms: C13_26  and  C14_27
REMARK   12  A    between atoms: C17_30  and  C18_31
REMARK   13  A    between atoms: C18_31  and  C19_32
REMARK   14  A    between atoms: C19_32  and  C20_33
REMARK                            x       y       z     vdW  Elec       q    Type
REMARK                         _______ _______ _______ _____ _____    ______ ____
ROOT
ATOM      1  N2  NGI     0      -2.288   5.573 -12.694  0.00  0.00    +0.000 N 
ATOM      2  N3  NGI     0      -0.899   5.564 -11.009  0.00  0.00    +0.000 NA
ATOM      3  N5  NGI     0      -2.831   2.613  -9.978  0.00  0.00    +0.000 NA
ATOM      4  N6  NGI     0      -4.646   1.677 -11.112  0.00  0.00    +0.000 N 
ATOM      5  N7  NGI     0      -3.569   3.562 -11.963  0.00  0.00    +0.000 N 
ATOM      6  C8  NGI     0      -1.223   6.189 -12.103  0.00  0.00    +0.000 A 
ATOM      7  C9  NGI     0      -1.737   4.515 -10.825  0.00  0.00    +0.000 A 
ATOM      8  C10 NGI     0      -1.864   3.514  -9.844  0.00  0.00    +0.000 C 
ATOM      9  C11 NGI     0      -3.654   2.640 -11.019  0.00  0.00    +0.000 C 
ATOM     10  C23 NGI     0      -2.635   4.506 -11.904  0.00  0.00    +0.000 A 
ATOM     11  HN6 NGI     0      -5.256   1.680 -11.865  0.00  0.00    +0.000 HD
ATOM     12  H   NGI     0      -4.203   3.548 -12.717  0.00  0.00    +0.000 HD
ENDROOT
BRANCH   1  15
ATOM     13  O2  NGI     0      -4.337   6.274 -13.702  0.00  0.00    +0.000 OA
ATOM     14  C4  NGI     0      -4.972   6.170 -14.995  0.00  0.00    +0.000 C 
ATOM     15  C5  NGI     0      -2.942   5.980 -13.939  0.00  0.00    +0.000 C 
ATOM     16  C6  NGI     0      -2.951   4.810 -14.949  0.00  0.00    +0.000 C 
ATOM     17  C7  NGI     0      -4.318   4.939 -15.659  0.00  0.00    +0.000 C 
BRANCH  14  20
ATOM     18  N1  NGI     0      -7.303   6.352 -15.804  0.00  0.00    +0.000 N 
ATOM     19  O1  NGI     0      -6.885   5.421 -13.833  0.00  0.00    +0.000 OA
ATOM     20  C3  NGI     0      -6.455   5.954 -14.835  0.00  0.00    +0.000 C 
ATOM     21  HN1 NGI     0      -6.959   6.778 -16.604  0.00  0.00    +0.000 HD
BRANCH  18  23
ATOM     22  C1  NGI     0      -9.429   6.272 -17.008  0.00  0.00    +0.000 C 
ATOM     23  C2  NGI     0      -8.744   6.141 -15.647  0.00  0.00    +0.000 C 
ENDBRANCH  18  23
ENDBRANCH  14  20
BRANCH  16  24
ATOM     24  O3  NGI     0      -1.884   4.951 -15.888  0.00  0.00    +0.000 OA
ATOM     25  HO3 NGI     0      -1.358   5.754 -15.768  0.00  0.00    +0.000 HD
ENDBRANCH  16  24
BRANCH  17  26
ATOM     26  O4  NGI     0      -4.135   5.162 -17.059  0.00  0.00    +0.000 OA
ATOM     27  HO4 NGI     0      -4.165   4.357 -17.593  0.00  0.00    +0.000 HD
ENDBRANCH  17  26
ENDBRANCH   1  15
BRANCH   8  28
ATOM     28  N4  NGI     0      -1.001   3.470  -8.765  0.00  0.00    +0.000 NA
ATOM     29  HN4 NGI     0      -0.096   3.810  -8.854  0.00  0.00    +0.000 HD
ATOM     30 HN4A NGI     0      -1.298   3.100  -7.920  0.00  0.00    +0.000 HD
ENDBRANCH   8  28
BRANCH   4  31
ATOM     31  C12 NGI     0      -4.772   0.652 -10.072  0.00  0.00    +0.000 C 
BRANCH  31  32
ATOM     32  C13 NGI     0      -4.339   1.236  -8.725  0.00  0.00    +0.000 C 
BRANCH  32  33
ATOM     33  C14 NGI     0      -3.933   0.117  -7.800  0.00  0.00    +0.000 A 
ATOM     34  C15 NGI     0      -4.864  -0.447  -6.949  0.00  0.00    +0.000 A 
ATOM     35  C16 NGI     0      -4.492  -1.473  -6.100  0.00  0.00    +0.000 A 
ATOM     36  C17 NGI     0      -3.188  -1.933  -6.102  0.00  0.00    +0.000 A 
ATOM     37  C21 NGI     0      -2.258  -1.369  -6.953  0.00  0.00    +0.000 A 
ATOM     38  C22 NGI     0      -2.631  -0.347  -7.807  0.00  0.00    +0.000 A 
BRANCH  36  39
ATOM     39  C18 NGI     0      -2.783  -3.051  -5.177  0.00  0.00    +0.000 C 
BRANCH  39  40
ATOM     40  C19 NGI     0      -1.259  -3.186  -5.175  0.00  0.00    +0.000 C 
BRANCH  40  42
ATOM     41  O6  NGI     0      -0.437  -5.338  -4.676  0.00  0.00    +0.000 OA
ATOM     42  C20 NGI     0      -0.854  -4.293  -4.236  0.00  0.00    +0.000 C 
BRANCH  42  43
ATOM     43  O5  NGI     0      -0.956  -4.116  -2.909  0.00  0.00    +0.000 OA
ATOM     44  HO5 NGI     0      -0.141  -4.190  -2.393  0.00  0.00    +0.000 HD
ENDBRANCH  42  43
ENDBRANCH  40  42
ENDBRANCH  39  40
ENDBRANCH  36  39
ENDBRANCH  32  33
ENDBRANCH  31  32
ENDBRANCH   4  31
TORSDOF 13
ENDMDL
