REMARK VINA RESULT:      -6.7      1.284      2.313
REMARK  Name = ADN.pdb
REMARK  6 active torsions:
REMARK  status: ('A' for Active; 'I' for Inactive)
REMARK    1  A    between atoms: O5'_1  and  C5'_2
REMARK    2  A    between atoms: C5'_2  and  C4'_3
REMARK    3  A    between atoms: C3'_5  and  O3'_6
REMARK    4  A    between atoms: C2'_7  and  O2'_8
REMARK    5  A    between atoms: C1'_9  and  N9_10
REMARK    6  A    between atoms: C6_14  and  N6_15
REMARK                            x       y       z     vdW  Elec       q    Type
REMARK                         _______ _______ _______ _____ _____    ______ ____
ROOT
ATOM      1  N9  ADN     0      -3.070   1.903  -9.857  0.00  0.00    +0.000 N 
ATOM      2  C8  ADN     0      -4.321   1.393 -10.040  0.00  0.00    +0.000 A 
ATOM      3  N7  ADN     0      -4.906   1.994 -11.035  0.00  0.00    +0.000 NA
ATOM      4  C5  ADN     0      -4.070   2.929 -11.550  0.00  0.00    +0.000 A 
ATOM      5  C6  ADN     0      -4.151   3.851 -12.608  0.00  0.00    +0.000 C 
ATOM      6  N1  ADN     0      -3.107   4.635 -12.845  0.00  0.00    +0.000 NA
ATOM      7  C2  ADN     0      -2.011   4.554 -12.112  0.00  0.00    +0.000 C 
ATOM      8  N3  ADN     0      -1.887   3.702 -11.116  0.00  0.00    +0.000 N 
ATOM      9  C4  ADN     0      -2.881   2.877 -10.805  0.00  0.00    +0.000 A 
ATOM     10  H   ADN     0      -1.051   3.676 -10.598  0.00  0.00    +0.000 HD
ENDROOT
BRANCH   1  15
ATOM     11  C4' ADN     0      -1.833   0.212  -6.949  0.00  0.00    +0.000 C 
ATOM     12  O4' ADN     0      -2.536   0.261  -8.209  0.00  0.00    +0.000 OA
ATOM     13  C3' ADN     0      -1.868   1.662  -6.422  0.00  0.00    +0.000 C 
ATOM     14  C2' ADN     0      -2.049   2.521  -7.695  0.00  0.00    +0.000 C 
ATOM     15  C1' ADN     0      -2.105   1.486  -8.839  0.00  0.00    +0.000 C 
BRANCH  13  16
ATOM     16  O3' ADN     0      -0.640   1.988  -5.767  0.00  0.00    +0.000 OA
ATOM     17 HO3' ADN     0      -0.802   1.912  -4.817  0.00  0.00    +0.000 HD
ENDBRANCH  13  16
BRANCH  14  18
ATOM     18  O2' ADN     0      -0.940   3.405  -7.864  0.00  0.00    +0.000 OA
ATOM     19 HO2' ADN     0      -0.176   2.857  -8.092  0.00  0.00    +0.000 HD
ENDBRANCH  14  18
BRANCH  11  20
ATOM     20  C5' ADN     0      -2.547  -0.729  -5.976  0.00  0.00    +0.000 C 
BRANCH  20  21
ATOM     21  O5' ADN     0      -1.583  -1.366  -5.135  0.00  0.00    +0.000 OA
ATOM     22 HO5' ADN     0      -1.962  -2.216  -4.871  0.00  0.00    +0.000 HD
ENDBRANCH  20  21
ENDBRANCH  11  20
ENDBRANCH   1  15
BRANCH   5  23
ATOM     23  N6  ADN     0      -5.295   3.943 -13.380  0.00  0.00    +0.000 NA
ATOM     24 HN61 ADN     0      -6.000   3.283 -13.285  0.00  0.00    +0.000 HD
ATOM     25 HN62 ADN     0      -5.396   4.671 -14.014  0.00  0.00    +0.000 HD
ENDBRANCH   5  23
TORSDOF 6
