REMARK VINA RESULT:      -7.7      3.324     11.796
REMARK  Name = NGI.pdb
REMARK  14 active torsions:
REMARK  status: ('A' for Active; 'I' for Inactive)
REMARK    1  A    between atoms: C1_1  and  C2_4
REMARK    2  A    between atoms: N1_2  and  C2_4
REMARK    3  A    between atoms: N2_5  and  C5_13
REMARK    4  A    between atoms: C3_7  and  C4_10
REMARK    5  A    between atoms: O3_9  and  C6_16
REMARK    6  A    between atoms: N4_11  and  C10_23
REMARK    7  A    between atoms: O4_12  and  C7_19
REMARK    8  A    between atoms: O5_15  and  C20_33
REMARK    9  A    between atoms: N6_17  and  C12_25
REMARK   10  A    between atoms: C12_25  and  C13_26
REMARK   11  A    between atoms: C13_26  and  C14_27
REMARK   12  A    between atoms: C17_30  and  C18_31
REMARK   13  A    between atoms: C18_31  and  C19_32
REMARK   14  A    between atoms: C19_32  and  C20_33
REMARK                            x       y       z     vdW  Elec       q    Type
REMARK                         _______ _______ _______ _____ _____    ______ ____
ROOT
ATOM      1  N2  NGI     0      -4.000   3.852 -12.795  0.00  0.00    +0.000 N 
ATOM      2  N3  NGI     0      -6.091   3.467 -13.289  0.00  0.00    +0.000 NA
ATOM      3  N5  NGI     0      -5.733   6.512 -15.315  0.00  0.00    +0.000 NA
ATOM      4  N6  NGI     0      -3.805   7.813 -15.537  0.00  0.00    +0.000 N 
ATOM      5  N7  NGI     0      -3.796   5.911 -14.188  0.00  0.00    +0.000 N 
ATOM      6  C8  NGI     0      -5.074   3.034 -12.603  0.00  0.00    +0.000 A 
ATOM      7  C9  NGI     0      -5.737   4.593 -13.956  0.00  0.00    +0.000 A 
ATOM      8  C10 NGI     0      -6.402   5.474 -14.828  0.00  0.00    +0.000 C 
ATOM      9  C11 NGI     0      -4.459   6.714 -15.003  0.00  0.00    +0.000 C 
ATOM     10  C23 NGI     0      -4.391   4.851 -13.650  0.00  0.00    +0.000 A 
ATOM     11  HN6 NGI     0      -2.875   7.976 -15.321  0.00  0.00    +0.000 HD
ATOM     12  H   NGI     0      -2.852   6.099 -13.979  0.00  0.00    +0.000 HD
ENDROOT
BRANCH   1  15
ATOM     13  O2  NGI     0      -2.723   2.752 -11.101  0.00  0.00    +0.000 OA
ATOM     14  C4  NGI     0      -1.559   3.038 -10.297  0.00  0.00    +0.000 C 
ATOM     15  C5  NGI     0      -2.673   3.696 -12.193  0.00  0.00    +0.000 C 
ATOM     16  C6  NGI     0      -2.215   5.023 -11.548  0.00  0.00    +0.000 C 
ATOM     17  C7  NGI     0      -1.466   4.580 -10.271  0.00  0.00    +0.000 C 
BRANCH  14  20
ATOM     18  N1  NGI     0      -2.423   1.357  -8.701  0.00  0.00    +0.000 N 
ATOM     19  O1  NGI     0      -1.271   3.100  -7.955  0.00  0.00    +0.000 OA
ATOM     20  C3  NGI     0      -1.740   2.501  -8.900  0.00  0.00    +0.000 C 
ATOM     21  HN1 NGI     0      -2.798   0.878  -9.457  0.00  0.00    +0.000 HD
BRANCH  18  23
ATOM     22  C1  NGI     0      -1.759  -0.431  -7.171  0.00  0.00    +0.000 C 
ATOM     23  C2  NGI     0      -2.598   0.836  -7.343  0.00  0.00    +0.000 C 
ENDBRANCH  18  23
ENDBRANCH  14  20
BRANCH  16  24
ATOM     24  O3  NGI     0      -1.336   5.729 -12.425  0.00  0.00    +0.000 OA
ATOM     25  HO3 NGI     0      -0.525   5.248 -12.640  0.00  0.00    +0.000 HD
ENDBRANCH  16  24
BRANCH  17  26
ATOM     26  O4  NGI     0      -0.101   5.000 -10.321  0.00  0.00    +0.000 OA
ATOM     27  HO4 NGI     0       0.510   4.319 -10.637  0.00  0.00    +0.000 HD
ENDBRANCH  17  26
ENDBRANCH   1  15
BRANCH   8  28
ATOM     28  N4  NGI     0      -7.725   5.261 -15.171  0.00  0.00    +0.000 NA
ATOM     29  HN4 NGI     0      -8.434   5.630 -14.620  0.00  0.00    +0.000 HD
ATOM     30 HN4A NGI     0      -7.946   4.744 -15.961  0.00  0.00    +0.000 HD
ENDBRANCH   8  28
BRANCH   4  31
ATOM     31  C12 NGI     0      -4.521   8.727 -16.431  0.00  0.00    +0.000 C 
BRANCH  31  32
ATOM     32  C13 NGI     0      -4.199   8.375 -17.885  0.00  0.00    +0.000 C 
BRANCH  32  33
ATOM     33  C14 NGI     0      -5.445   7.876 -18.569  0.00  0.00    +0.000 A 
ATOM     34  C15 NGI     0      -6.685   8.339 -18.170  0.00  0.00    +0.000 A 
ATOM     35  C16 NGI     0      -7.829   7.881 -18.797  0.00  0.00    +0.000 A 
ATOM     36  C17 NGI     0      -7.732   6.959 -19.824  0.00  0.00    +0.000 A 
ATOM     37  C21 NGI     0      -6.493   6.497 -20.223  0.00  0.00    +0.000 A 
ATOM     38  C22 NGI     0      -5.348   6.959 -19.600  0.00  0.00    +0.000 A 
BRANCH  36  39
ATOM     39  C18 NGI     0      -8.979   6.461 -20.507  0.00  0.00    +0.000 C 
BRANCH  39  40
ATOM     40  C19 NGI     0      -9.856   5.723 -19.495  0.00  0.00    +0.000 C 
BRANCH  40  42
ATOM     41  O6  NGI     0      -9.090   3.536 -19.927  0.00  0.00    +0.000 OA
ATOM     42  C20 NGI     0      -9.196   4.423 -19.113  0.00  0.00    +0.000 C 
BRANCH  42  43
ATOM     43  O5  NGI     0      -8.725   4.250 -17.867  0.00  0.00    +0.000 OA
ATOM     44  HO5 NGI     0      -7.910   4.717 -17.638  0.00  0.00    +0.000 HD
ENDBRANCH  42  43
ENDBRANCH  40  42
ENDBRANCH  39  40
ENDBRANCH  36  39
ENDBRANCH  32  33
ENDBRANCH  31  32
ENDBRANCH   4  31
TORSDOF 13
