REMARK VINA RESULT:      -6.3      2.840     11.298
REMARK  Name = NGI.pdb
REMARK  14 active torsions:
REMARK  status: ('A' for Active; 'I' for Inactive)
REMARK    1  A    between atoms: C1_1  and  C2_4
REMARK    2  A    between atoms: N1_2  and  C2_4
REMARK    3  A    between atoms: N2_5  and  C5_13
REMARK    4  A    between atoms: C3_7  and  C4_10
REMARK    5  A    between atoms: O3_9  and  C6_16
REMARK    6  A    between atoms: N4_11  and  C10_23
REMARK    7  A    between atoms: O4_12  and  C7_19
REMARK    8  A    between atoms: O5_15  and  C20_33
REMARK    9  A    between atoms: N6_17  and  C12_25
REMARK   10  A    between atoms: C12_25  and  C13_26
REMARK   11  A    between atoms: C13_26  and  C14_27
REMARK   12  A    between atoms: C17_30  and  C18_31
REMARK   13  A    between atoms: C18_31  and  C19_32
REMARK   14  A    between atoms: C19_32  and  C20_33
REMARK                            x       y       z     vdW  Elec       q    Type
REMARK                         _______ _______ _______ _____ _____    ______ ____
ROOT
ATOM      1  N2  NGI     0      -0.785   2.438  -9.301  0.00  0.00    +0.000 N 
ATOM      2  N3  NGI     0      -0.043   4.029 -10.598  0.00  0.00    +0.000 NA
ATOM      3  N5  NGI     0      -3.351   3.715 -12.168  0.00  0.00    +0.000 NA
ATOM      4  N6  NGI     0      -5.049   2.239 -11.542  0.00  0.00    +0.000 N 
ATOM      5  N7  NGI     0      -3.022   2.261 -10.390  0.00  0.00    +0.000 N 
ATOM      6  C8  NGI     0       0.263   3.260  -9.594  0.00  0.00    +0.000 A 
ATOM      7  C9  NGI     0      -1.300   3.745 -11.017  0.00  0.00    +0.000 A 
ATOM      8  C10 NGI     0      -2.138   4.240 -12.033  0.00  0.00    +0.000 C 
ATOM      9  C11 NGI     0      -3.776   2.754 -11.358  0.00  0.00    +0.000 C 
ATOM     10  C23 NGI     0      -1.792   2.723 -10.188  0.00  0.00    +0.000 A 
ATOM     11  HN6 NGI     0      -5.378   1.537 -10.960  0.00  0.00    +0.000 HD
ATOM     12  H   NGI     0      -3.375   1.544  -9.814  0.00  0.00    +0.000 HD
ENDROOT
BRANCH   1  15
ATOM     13  O2  NGI     0      -1.813   0.420  -8.540  0.00  0.00    +0.000 OA
ATOM     14  C4  NGI     0      -2.121  -0.200  -7.273  0.00  0.00    +0.000 C 
ATOM     15  C5  NGI     0      -0.826   1.431  -8.239  0.00  0.00    +0.000 C 
ATOM     16  C6  NGI     0      -1.302   2.066  -6.913  0.00  0.00    +0.000 C 
ATOM     17  C7  NGI     0      -2.174   0.968  -6.263  0.00  0.00    +0.000 C 
BRANCH  14  20
ATOM     18  N1  NGI     0      -4.386  -0.489  -8.225  0.00  0.00    +0.000 N 
ATOM     19  O1  NGI     0      -3.693  -1.824  -6.594  0.00  0.00    +0.000 OA
ATOM     20  C3  NGI     0      -3.456  -0.896  -7.339  0.00  0.00    +0.000 C 
ATOM     21  HN1 NGI     0      -4.196   0.253  -8.821  0.00  0.00    +0.000 HD
BRANCH  18  23
ATOM     22  C1  NGI     0      -6.370  -1.079  -6.924  0.00  0.00    +0.000 C 
ATOM     23  C2  NGI     0      -5.683  -1.166  -8.288  0.00  0.00    +0.000 C 
ENDBRANCH  18  23
ENDBRANCH  14  20
BRANCH  16  24
ATOM     24  O3  NGI     0      -0.186   2.379  -6.078  0.00  0.00    +0.000 OA
ATOM     25  HO3 NGI     0       0.089   3.305  -6.119  0.00  0.00    +0.000 HD
ENDBRANCH  16  24
BRANCH  17  26
ATOM     26  O4  NGI     0      -1.623   0.570  -5.007  0.00  0.00    +0.000 OA
ATOM     27  HO4 NGI     0      -0.801   1.025  -4.775  0.00  0.00    +0.000 HD
ENDBRANCH  17  26
ENDBRANCH   1  15
BRANCH   8  28
ATOM     28  N4  NGI     0      -1.708   5.252 -12.871  0.00  0.00    +0.000 NA
ATOM     29  HN4 NGI     0      -0.858   5.171 -13.332  0.00  0.00    +0.000 HD
ATOM     30 HN4A NGI     0      -2.254   6.042 -12.999  0.00  0.00    +0.000 HD
ENDBRANCH   8  28
BRANCH   4  31
ATOM     31  C12 NGI     0      -5.901   2.758 -12.616  0.00  0.00    +0.000 C 
BRANCH  31  32
ATOM     32  C13 NGI     0      -5.550   4.222 -12.884  0.00  0.00    +0.000 C 
BRANCH  32  33
ATOM     33  C14 NGI     0      -5.535   4.472 -14.370  0.00  0.00    +0.000 A 
ATOM     34  C15 NGI     0      -6.565   5.180 -14.961  0.00  0.00    +0.000 A 
ATOM     35  C16 NGI     0      -6.552   5.409 -16.325  0.00  0.00    +0.000 A 
ATOM     36  C17 NGI     0      -5.509   4.929 -17.096  0.00  0.00    +0.000 A 
ATOM     37  C21 NGI     0      -4.481   4.221 -16.505  0.00  0.00    +0.000 A 
ATOM     38  C22 NGI     0      -4.490   3.998 -15.141  0.00  0.00    +0.000 A 
BRANCH  36  39
ATOM     39  C18 NGI     0      -5.496   5.179 -18.582  0.00  0.00    +0.000 C 
BRANCH  39  40
ATOM     40  C19 NGI     0      -5.501   3.842 -19.325  0.00  0.00    +0.000 C 
BRANCH  40  42
ATOM     41  O6  NGI     0      -6.992   3.790 -21.150  0.00  0.00    +0.000 OA
ATOM     42  C20 NGI     0      -6.851   3.626 -19.961  0.00  0.00    +0.000 C 
BRANCH  42  43
ATOM     43  O5  NGI     0      -7.896   3.251 -19.206  0.00  0.00    +0.000 OA
ATOM     44  HO5 NGI     0      -8.180   2.330 -19.278  0.00  0.00    +0.000 HD
ENDBRANCH  42  43
ENDBRANCH  40  42
ENDBRANCH  39  40
ENDBRANCH  36  39
ENDBRANCH  32  33
ENDBRANCH  31  32
ENDBRANCH   4  31
TORSDOF 13
