REMARK VINA RESULT:      -6.2      3.537      5.277
REMARK  Name = NEC.pdb
REMARK  7 active torsions:
REMARK  status: ('A' for Active; 'I' for Inactive)
REMARK    1  A    between atoms: C5'_1  and  C4'_6
REMARK    2  A    between atoms: N5'_3  and  C51_4
REMARK    3  A    between atoms: C51_4  and  C52_5
REMARK    4  A    between atoms: C3'_8  and  O3'_9
REMARK    5  A    between atoms: C2'_10  and  O2'_11
REMARK    6  A    between atoms: C1'_12  and  N9_13
REMARK    7  A    between atoms: C6_17  and  N6_18
REMARK                            x       y       z     vdW  Elec       q    Type
REMARK                         _______ _______ _______ _____ _____    ______ ____
ROOT
ATOM      1  C4' NEC     0      -0.720   4.353 -10.978  0.00  0.00    +0.000 C 
ATOM      2  O4' NEC     0      -1.302   4.201 -12.290  0.00  0.00    +0.000 OA
ATOM      3  C3' NEC     0      -1.549   5.497 -10.341  0.00  0.00    +0.000 C 
ATOM      4  C2' NEC     0      -1.795   6.431 -11.554  0.00  0.00    +0.000 C 
ATOM      5  C1' NEC     0      -1.583   5.522 -12.780  0.00  0.00    +0.000 C 
ENDROOT
BRANCH   5   6
ATOM      6  N9  NEC     0      -2.794   5.502 -13.602  0.00  0.00    +0.000 N 
ATOM      7  C8  NEC     0      -3.050   6.296 -14.680  0.00  0.00    +0.000 A 
ATOM      8  N7  NEC     0      -4.220   6.011 -15.175  0.00  0.00    +0.000 NA
ATOM      9  C5  NEC     0      -4.788   5.018 -14.447  0.00  0.00    +0.000 A 
ATOM     10  C6  NEC     0      -6.006   4.321 -14.509  0.00  0.00    +0.000 C 
ATOM     11  N1  NEC     0      -6.241   3.377 -13.606  0.00  0.00    +0.000 NA
ATOM     12  C2  NEC     0      -5.357   3.094 -12.667  0.00  0.00    +0.000 C 
ATOM     13  N3  NEC     0      -4.203   3.721 -12.571  0.00  0.00    +0.000 N 
ATOM     14  C4  NEC     0      -3.878   4.677 -13.435  0.00  0.00    +0.000 A 
ATOM     15  H   NEC     0      -3.576   3.479 -11.852  0.00  0.00    +0.000 HD
BRANCH  10  16
ATOM     16  N6  NEC     0      -6.939   4.610 -15.490  0.00  0.00    +0.000 NA
ATOM     17 HN61 NEC     0      -6.821   4.266 -16.389  0.00  0.00    +0.000 HD
ATOM     18 HN62 NEC     0      -7.712   5.157 -15.277  0.00  0.00    +0.000 HD
ENDBRANCH  10  16
ENDBRANCH   5   6
BRANCH   1  19
ATOM     19  C5' NEC     0      -0.870   3.083 -10.181  0.00  0.00    +0.000 C 
ATOM     20  O5' NEC     0       0.115   2.464  -9.837  0.00  0.00    +0.000 OA
ATOM     21  N5' NEC     0      -2.097   2.637  -9.849  0.00  0.00    +0.000 N 
ATOM     22  HN5 NEC     0      -2.883   3.132 -10.123  0.00  0.00    +0.000 HD
BRANCH  21  23
ATOM     23  C51 NEC     0      -2.242   1.403  -9.072  0.00  0.00    +0.000 C 
ATOM     24  C52 NEC     0      -3.682   0.898  -9.181  0.00  0.00    +0.000 C 
ENDBRANCH  21  23
ENDBRANCH   1  19
BRANCH   3  25
ATOM     25  O3' NEC     0      -0.803   6.168  -9.324  0.00  0.00    +0.000 OA
ATOM     26 HO3' NEC     0      -1.448   6.561  -8.718  0.00  0.00    +0.000 HD
ENDBRANCH   3  25
BRANCH   4  27
ATOM     27  O2' NEC     0      -0.851   7.504 -11.557  0.00  0.00    +0.000 OA
ATOM     28 HO2' NEC     0      -1.006   8.009 -12.369  0.00  0.00    +0.000 HD
ENDBRANCH   4  27
TORSDOF 6
