REMARK VINA RESULT:      -7.8      3.535     11.971
REMARK  Name = NGI.pdb
REMARK  14 active torsions:
REMARK  status: ('A' for Active; 'I' for Inactive)
REMARK    1  A    between atoms: C1_1  and  C2_4
REMARK    2  A    between atoms: N1_2  and  C2_4
REMARK    3  A    between atoms: N2_5  and  C5_13
REMARK    4  A    between atoms: C3_7  and  C4_10
REMARK    5  A    between atoms: O3_9  and  C6_16
REMARK    6  A    between atoms: N4_11  and  C10_23
REMARK    7  A    between atoms: O4_12  and  C7_19
REMARK    8  A    between atoms: O5_15  and  C20_33
REMARK    9  A    between atoms: N6_17  and  C12_25
REMARK   10  A    between atoms: C12_25  and  C13_26
REMARK   11  A    between atoms: C13_26  and  C14_27
REMARK   12  A    between atoms: C17_30  and  C18_31
REMARK   13  A    between atoms: C18_31  and  C19_32
REMARK   14  A    between atoms: C19_32  and  C20_33
REMARK                            x       y       z     vdW  Elec       q    Type
REMARK                         _______ _______ _______ _____ _____    ______ ____
ROOT
ATOM      1  N2  NGI     0      -4.396   0.960  -9.062  0.00  0.00    +0.000 N 
ATOM      2  N3  NGI     0      -5.605  -0.637  -9.931  0.00  0.00    +0.000 NA
ATOM      3  N5  NGI     0      -6.043   1.766 -12.677  0.00  0.00    +0.000 NA
ATOM      4  N6  NGI     0      -5.131   3.913 -12.801  0.00  0.00    +0.000 N 
ATOM      5  N7  NGI     0      -4.712   2.559 -10.949  0.00  0.00    +0.000 N 
ATOM      6  C8  NGI     0      -4.885  -0.303  -8.899  0.00  0.00    +0.000 A 
ATOM      7  C9  NGI     0      -5.630   0.391 -10.814  0.00  0.00    +0.000 A 
ATOM      8  C10 NGI     0      -6.231   0.600 -12.069  0.00  0.00    +0.000 C 
ATOM      9  C11 NGI     0      -5.295   2.714 -12.126  0.00  0.00    +0.000 C 
ATOM     10  C23 NGI     0      -4.853   1.426 -10.268  0.00  0.00    +0.000 A 
ATOM     11  HN6 NGI     0      -4.588   4.616 -12.415  0.00  0.00    +0.000 HD
ATOM     12  H   NGI     0      -4.168   3.289 -10.574  0.00  0.00    +0.000 HD
ENDROOT
BRANCH   1  15
ATOM     13  O2  NGI     0      -2.545   2.451  -8.827  0.00  0.00    +0.000 OA
ATOM     14  C4  NGI     0      -1.502   2.702  -7.860  0.00  0.00    +0.000 C 
ATOM     15  C5  NGI     0      -3.545   1.686  -8.117  0.00  0.00    +0.000 C 
ATOM     16  C6  NGI     0      -2.740   0.696  -7.246  0.00  0.00    +0.000 C 
ATOM     17  C7  NGI     0      -1.365   1.380  -7.073  0.00  0.00    +0.000 C 
BRANCH  14  20
ATOM     18  N1  NGI     0      -0.085   2.829  -9.884  0.00  0.00    +0.000 N 
ATOM     19  O1  NGI     0       0.725   3.482  -7.924  0.00  0.00    +0.000 OA
ATOM     20  C3  NGI     0      -0.208   3.033  -8.558  0.00  0.00    +0.000 C 
ATOM     21  HN1 NGI     0      -0.830   2.469 -10.390  0.00  0.00    +0.000 HD
BRANCH  18  23
ATOM     22  C1  NGI     0       1.835   1.858 -11.046  0.00  0.00    +0.000 C 
ATOM     23  C2  NGI     0       1.174   3.150 -10.561  0.00  0.00    +0.000 C 
ENDBRANCH  18  23
ENDBRANCH  14  20
BRANCH  16  24
ATOM     24  O3  NGI     0      -3.373   0.517  -5.978  0.00  0.00    +0.000 OA
ATOM     25  HO3 NGI     0      -3.259  -0.367  -5.603  0.00  0.00    +0.000 HD
ENDBRANCH  16  24
BRANCH  17  26
ATOM     26  O4  NGI     0      -1.107   1.643  -5.692  0.00  0.00    +0.000 OA
ATOM     27  HO4 NGI     0      -1.627   2.373  -5.327  0.00  0.00    +0.000 HD
ENDBRANCH  17  26
ENDBRANCH   1  15
BRANCH   8  28
ATOM     28  N4  NGI     0      -6.999  -0.388 -12.656  0.00  0.00    +0.000 NA
ATOM     29  HN4 NGI     0      -6.850  -0.631 -13.583  0.00  0.00    +0.000 HD
ATOM     30 HN4A NGI     0      -7.688  -0.838 -12.143  0.00  0.00    +0.000 HD
ENDBRANCH   8  28
BRANCH   4  31
ATOM     31  C12 NGI     0      -5.777   4.116 -14.100  0.00  0.00    +0.000 C 
BRANCH  31  32
ATOM     32  C13 NGI     0      -5.009   5.177 -14.891  0.00  0.00    +0.000 C 
BRANCH  32  33
ATOM     33  C14 NGI     0      -5.958   5.905 -15.808  0.00  0.00    +0.000 A 
ATOM     34  C15 NGI     0      -5.463   6.730 -16.800  0.00  0.00    +0.000 A 
ATOM     35  C16 NGI     0      -6.334   7.399 -17.641  0.00  0.00    +0.000 A 
ATOM     36  C17 NGI     0      -7.700   7.243 -17.488  0.00  0.00    +0.000 A 
ATOM     37  C21 NGI     0      -8.194   6.419 -16.495  0.00  0.00    +0.000 A 
ATOM     38  C22 NGI     0      -7.323   5.745 -15.659  0.00  0.00    +0.000 A 
BRANCH  36  39
ATOM     39  C18 NGI     0      -8.648   7.972 -18.404  0.00  0.00    +0.000 C 
BRANCH  39  40
ATOM     40  C19 NGI     0     -10.015   8.096 -17.730  0.00  0.00    +0.000 C 
BRANCH  40  42
ATOM     41  O6  NGI     0     -12.213   7.441 -18.272  0.00  0.00    +0.000 OA
ATOM     42  C20 NGI     0     -11.036   7.316 -18.518  0.00  0.00    +0.000 C 
BRANCH  42  43
ATOM     43  O5  NGI     0     -10.638   6.484 -19.493  0.00  0.00    +0.000 OA
ATOM     44  HO5 NGI     0     -10.452   6.877 -20.357  0.00  0.00    +0.000 HD
ENDBRANCH  42  43
ENDBRANCH  40  42
ENDBRANCH  39  40
ENDBRANCH  36  39
ENDBRANCH  32  33
ENDBRANCH  31  32
ENDBRANCH   4  31
TORSDOF 13
