REMARK VINA RESULT:      -6.0      2.624      3.780
REMARK  Name = NEC.pdb
REMARK  7 active torsions:
REMARK  status: ('A' for Active; 'I' for Inactive)
REMARK    1  A    between atoms: C5'_1  and  C4'_6
REMARK    2  A    between atoms: N5'_3  and  C51_4
REMARK    3  A    between atoms: C51_4  and  C52_5
REMARK    4  A    between atoms: C3'_8  and  O3'_9
REMARK    5  A    between atoms: C2'_10  and  O2'_11
REMARK    6  A    between atoms: C1'_12  and  N9_13
REMARK    7  A    between atoms: C6_17  and  N6_18
REMARK                            x       y       z     vdW  Elec       q    Type
REMARK                         _______ _______ _______ _____ _____    ______ ____
ROOT
ATOM      1  C4' NEC     0      -1.736   2.244  -9.629  0.00  0.00    +0.000 C 
ATOM      2  O4' NEC     0      -2.373   2.608 -10.872  0.00  0.00    +0.000 OA
ATOM      3  C3' NEC     0      -1.166   3.586  -9.104  0.00  0.00    +0.000 C 
ATOM      4  C2' NEC     0      -0.713   4.278 -10.414  0.00  0.00    +0.000 C 
ATOM      5  C1' NEC     0      -1.517   3.564 -11.517  0.00  0.00    +0.000 C 
ENDROOT
BRANCH   5   6
ATOM      6  N9  NEC     0      -2.324   4.537 -12.257  0.00  0.00    +0.000 N 
ATOM      7  C8  NEC     0      -1.969   5.817 -12.556  0.00  0.00    +0.000 A 
ATOM      8  N7  NEC     0      -2.924   6.400 -13.223  0.00  0.00    +0.000 NA
ATOM      9  C5  NEC     0      -3.949   5.531 -13.393  0.00  0.00    +0.000 A 
ATOM     10  C6  NEC     0      -5.207   5.597 -14.016  0.00  0.00    +0.000 C 
ATOM     11  N1  NEC     0      -5.983   4.520 -13.992  0.00  0.00    +0.000 NA
ATOM     12  C2  NEC     0      -5.590   3.408 -13.398  0.00  0.00    +0.000 C 
ATOM     13  N3  NEC     0      -4.421   3.301 -12.802  0.00  0.00    +0.000 N 
ATOM     14  C4  NEC     0      -3.575   4.325 -12.780  0.00  0.00    +0.000 A 
ATOM     15  H   NEC     0      -4.172   2.453 -12.368  0.00  0.00    +0.000 HD
BRANCH  10  16
ATOM     16  N6  NEC     0      -5.628   6.758 -14.641  0.00  0.00    +0.000 NA
ATOM     17 HN61 NEC     0      -6.560   6.869 -14.883  0.00  0.00    +0.000 HD
ATOM     18 HN62 NEC     0      -4.989   7.462 -14.837  0.00  0.00    +0.000 HD
ENDBRANCH  10  16
ENDBRANCH   5   6
BRANCH   1  19
ATOM     19  C5' NEC     0      -2.745   1.681  -8.660  0.00  0.00    +0.000 C 
ATOM     20  O5' NEC     0      -3.931   1.811  -8.878  0.00  0.00    +0.000 OA
ATOM     21  N5' NEC     0      -2.329   1.033  -7.555  0.00  0.00    +0.000 N 
ATOM     22  HN5 NEC     0      -1.381   0.930  -7.382  0.00  0.00    +0.000 HD
BRANCH  21  23
ATOM     23  C51 NEC     0      -3.309   0.486  -6.615  0.00  0.00    +0.000 C 
ATOM     24  C52 NEC     0      -3.381  -1.034  -6.780  0.00  0.00    +0.000 C 
ENDBRANCH  21  23
ENDBRANCH   1  19
BRANCH   3  25
ATOM     25  O3' NEC     0      -0.055   3.368  -8.232  0.00  0.00    +0.000 OA
ATOM     26 HO3' NEC     0       0.497   4.160  -8.278  0.00  0.00    +0.000 HD
ENDBRANCH   3  25
BRANCH   4  27
ATOM     27  O2' NEC     0       0.690   4.093 -10.618  0.00  0.00    +0.000 OA
ATOM     28 HO2' NEC     0       0.993   3.481  -9.933  0.00  0.00    +0.000 HD
ENDBRANCH   4  27
TORSDOF 6
