MODEL 1
REMARK VINA RESULT:     -10.3      0.000      0.000
REMARK  Name = 118734340.pdb
REMARK  7 active torsions:
REMARK  status: ('A' for Active; 'I' for Inactive)
REMARK    1  A    between atoms: N_5  and  C_15
REMARK    2  A    between atoms: N_6  and  C_24
REMARK    3  A    between atoms: N_7  and  C_28
REMARK    4  A    between atoms: N_8  and  C_31
REMARK    5  A    between atoms: N_11  and  C_27
REMARK    6  A    between atoms: C_17  and  C_22
REMARK    7  A    between atoms: C_24  and  C_27
REMARK                            x       y       z     vdW  Elec       q    Type
REMARK                         _______ _______ _______ _____ _____    ______ ____
ROOT
ATOM      1  N   LIG     1     -29.439   8.294 -23.723  0.00  0.00    +0.000 N 
ATOM      2  N   LIG     1     -28.882   6.416 -24.789  0.00  0.00    +0.000 NA
ATOM      3  N   LIG     1     -30.021   7.382 -21.549  0.00  0.00    +0.000 NA
ATOM      4  N   LIG     1     -30.479   6.141 -19.647  0.00  0.00    +0.000 NA
ATOM      5  N   LIG     1     -29.753   4.957 -21.504  0.00  0.00    +0.000 NA
ATOM      6  N   LIG     1     -29.004   3.711 -23.406  0.00  0.00    +0.000 NA
ATOM      7  C   LIG     1     -29.607   7.283 -22.820  0.00  0.00    +0.000 A 
ATOM      8  C   LIG     1     -29.003   7.724 -24.890  0.00  0.00    +0.000 A 
ATOM      9  C   LIG     1     -29.256   6.127 -23.500  0.00  0.00    +0.000 A 
ATOM     10  C   LIG     1     -30.062   6.163 -20.969  0.00  0.00    +0.000 A 
ATOM     11  C   LIG     1     -29.340   4.932 -22.794  0.00  0.00    +0.000 A 
ENDROOT
BRANCH   1  16
ATOM     12  O   LIG     1     -30.509  10.317 -24.538  0.00  0.00    +0.000 OA
ATOM     13  O   LIG     1     -27.765  10.579 -22.236  0.00  0.00    +0.000 OA
ATOM     14  O   LIG     1     -29.485  12.621 -22.740  0.00  0.00    +0.000 OA
ATOM     15  C   LIG     1     -28.410  10.596 -23.493  0.00  0.00    +0.000 C 
ATOM     16  C   LIG     1     -29.686   9.765 -23.492  0.00  0.00    +0.000 C 
ATOM     17  C   LIG     1     -28.925  11.969 -23.879  0.00  0.00    +0.000 C 
ATOM     18  C   LIG     1     -30.043  11.637 -24.852  0.00  0.00    +0.000 C 
BRANCH  18  21
ATOM     19  O   LIG     1     -29.527  10.532 -26.901  0.00  0.00    +0.000 OA
ATOM     20  N   LIG     1     -29.192  12.831 -26.741  0.00  0.00    +0.000 NA
ATOM     21  C   LIG     1     -29.573  11.586 -26.270  0.00  0.00    +0.000 C 
BRANCH  20  22
ATOM     22  C   LIG     1     -28.679  13.049 -28.075  0.00  0.00    +0.000 C 
ATOM     23  C   LIG     1     -29.418  14.169 -28.777  0.00  0.00    +0.000 C 
ENDBRANCH  20  22
ENDBRANCH  18  21
ENDBRANCH   1  16
BRANCH   4  24
ATOM     24  C   LIG     1     -30.852   7.321 -18.906  0.00  0.00    +0.000 C 
BRANCH  24  25
ATOM     25  C   LIG     1     -31.158   6.945 -17.462  0.00  0.00    +0.000 C 
BRANCH  25  26
ATOM     26  N   LIG     1     -31.026   5.500 -17.274  0.00  0.00    +0.000 NA
ATOM     27  N   LIG     1     -31.294   3.017 -15.889  0.00  0.00    +0.000 N 
ATOM     28  C   LIG     1     -30.185   5.207 -16.107  0.00  0.00    +0.000 C 
ATOM     29  C   LIG     1     -32.347   4.881 -17.106  0.00  0.00    +0.000 C 
ATOM     30  C   LIG     1     -29.994   3.699 -15.933  0.00  0.00    +0.000 C 
ATOM     31  C   LIG     1     -32.229   3.361 -16.964  0.00  0.00    +0.000 C 
BRANCH  27  32
ATOM     32  C   LIG     1     -31.351   1.748 -15.301  0.00  0.00    +0.000 A 
ATOM     33  C   LIG     1     -31.807   0.656 -16.039  0.00  0.00    +0.000 A 
ATOM     34  C   LIG     1     -30.951   1.575 -13.975  0.00  0.00    +0.000 A 
ATOM     35  C   LIG     1     -31.865  -0.608 -15.452  0.00  0.00    +0.000 A 
ATOM     36  C   LIG     1     -31.008   0.311 -13.389  0.00  0.00    +0.000 A 
ATOM     37  C   LIG     1     -31.465  -0.780 -14.127  0.00  0.00    +0.000 A 
ENDBRANCH  27  32
ENDBRANCH  25  26
ENDBRANCH  24  25
ENDBRANCH   4  24
TORSDOF 7
ENDMDL
