REMARK VINA RESULT:      -7.7      3.276     12.086
REMARK  Name = NGI.pdb
REMARK  14 active torsions:
REMARK  status: ('A' for Active; 'I' for Inactive)
REMARK    1  A    between atoms: C1_1  and  C2_4
REMARK    2  A    between atoms: N1_2  and  C2_4
REMARK    3  A    between atoms: N2_5  and  C5_13
REMARK    4  A    between atoms: C3_7  and  C4_10
REMARK    5  A    between atoms: O3_9  and  C6_16
REMARK    6  A    between atoms: N4_11  and  C10_23
REMARK    7  A    between atoms: O4_12  and  C7_19
REMARK    8  A    between atoms: O5_15  and  C20_33
REMARK    9  A    between atoms: N6_17  and  C12_25
REMARK   10  A    between atoms: C12_25  and  C13_26
REMARK   11  A    between atoms: C13_26  and  C14_27
REMARK   12  A    between atoms: C17_30  and  C18_31
REMARK   13  A    between atoms: C18_31  and  C19_32
REMARK   14  A    between atoms: C19_32  and  C20_33
REMARK                            x       y       z     vdW  Elec       q    Type
REMARK                         _______ _______ _______ _____ _____    ______ ____
ROOT
ATOM      1  N2  NGI     0      -3.637   2.560 -10.890  0.00  0.00    +0.000 N 
ATOM      2  N3  NGI     0      -5.742   2.482 -11.461  0.00  0.00    +0.000 NA
ATOM      3  N5  NGI     0      -4.622   4.587 -14.259  0.00  0.00    +0.000 NA
ATOM      4  N6  NGI     0      -2.441   5.320 -14.657  0.00  0.00    +0.000 N 
ATOM      5  N7  NGI     0      -2.916   3.983 -12.807  0.00  0.00    +0.000 N 
ATOM      6  C8  NGI     0      -4.877   2.086 -10.574  0.00  0.00    +0.000 A 
ATOM      7  C9  NGI     0      -5.116   3.240 -12.395  0.00  0.00    +0.000 A 
ATOM      8  C10 NGI     0      -5.530   3.919 -13.556  0.00  0.00    +0.000 C 
ATOM      9  C11 NGI     0      -3.348   4.607 -13.889  0.00  0.00    +0.000 C 
ATOM     10  C23 NGI     0      -3.758   3.296 -12.041  0.00  0.00    +0.000 A 
ATOM     11  HN6 NGI     0      -1.506   5.346 -14.403  0.00  0.00    +0.000 HD
ATOM     12  H   NGI     0      -1.962   4.027 -12.566  0.00  0.00    +0.000 HD
ENDROOT
BRANCH   1  15
ATOM     13  O2  NGI     0      -2.553   1.186  -9.263  0.00  0.00    +0.000 OA
ATOM     14  C4  NGI     0      -1.536   1.343  -8.250  0.00  0.00    +0.000 C 
ATOM     15  C5  NGI     0      -2.404   2.329 -10.134  0.00  0.00    +0.000 C 
ATOM     16  C6  NGI     0      -2.125   3.515  -9.184  0.00  0.00    +0.000 C 
ATOM     17  C7  NGI     0      -1.541   2.852  -7.917  0.00  0.00    +0.000 C 
BRANCH  14  20
ATOM     18  N1  NGI     0      -3.015  -0.195  -6.999  0.00  0.00    +0.000 N 
ATOM     19  O1  NGI     0      -1.143   0.543  -6.065  0.00  0.00    +0.000 OA
ATOM     20  C3  NGI     0      -1.883   0.535  -7.027  0.00  0.00    +0.000 C 
ATOM     21  HN1 NGI     0      -3.607  -0.201  -7.768  0.00  0.00    +0.000 HD
BRANCH  18  23
ATOM     22  C1  NGI     0      -2.921  -2.433  -6.018  0.00  0.00    +0.000 C 
ATOM     23  C2  NGI     0      -3.351  -0.980  -5.809  0.00  0.00    +0.000 C 
ENDBRANCH  18  23
ENDBRANCH  14  20
BRANCH  16  24
ATOM     24  O3  NGI     0      -1.173   4.408  -9.765  0.00  0.00    +0.000 OA
ATOM     25  HO3 NGI     0      -1.288   5.332  -9.501  0.00  0.00    +0.000 HD
ENDBRANCH  16  24
BRANCH  17  26
ATOM     26  O4  NGI     0      -0.211   3.316  -7.676  0.00  0.00    +0.000 OA
ATOM     27  HO4 NGI     0       0.354   2.675  -7.222  0.00  0.00    +0.000 HD
ENDBRANCH  17  26
ENDBRANCH   1  15
BRANCH   8  28
ATOM     28  N4  NGI     0      -6.853   3.889 -13.955  0.00  0.00    +0.000 NA
ATOM     29  HN4 NGI     0      -7.511   3.416 -13.421  0.00  0.00    +0.000 HD
ATOM     30 HN4A NGI     0      -7.125   4.341 -14.769  0.00  0.00    +0.000 HD
ENDBRANCH   8  28
BRANCH   4  31
ATOM     31  C12 NGI     0      -2.895   6.033 -15.854  0.00  0.00    +0.000 C 
BRANCH  31  32
ATOM     32  C13 NGI     0      -3.708   7.261 -15.439  0.00  0.00    +0.000 C 
BRANCH  32  33
ATOM     33  C14 NGI     0      -4.921   7.383 -16.324  0.00  0.00    +0.000 A 
ATOM     34  C15 NGI     0      -5.950   6.466 -16.217  0.00  0.00    +0.000 A 
ATOM     35  C16 NGI     0      -7.063   6.579 -17.030  0.00  0.00    +0.000 A 
ATOM     36  C17 NGI     0      -7.146   7.607 -17.951  0.00  0.00    +0.000 A 
ATOM     37  C21 NGI     0      -6.117   8.523 -18.058  0.00  0.00    +0.000 A 
ATOM     38  C22 NGI     0      -5.007   8.415 -17.241  0.00  0.00    +0.000 A 
BRANCH  36  39
ATOM     39  C18 NGI     0      -8.359   7.728 -18.836  0.00  0.00    +0.000 C 
BRANCH  39  40
ATOM     40  C19 NGI     0      -9.521   8.313 -18.031  0.00  0.00    +0.000 C 
BRANCH  40  42
ATOM     41  O6  NGI     0     -10.607   6.229 -18.220  0.00  0.00    +0.000 OA
ATOM     42  C20 NGI     0     -10.393   7.193 -17.523  0.00  0.00    +0.000 C 
BRANCH  42  43
ATOM     43  O5  NGI     0     -10.931   7.267 -16.295  0.00  0.00    +0.000 OA
ATOM     44  HO5 NGI     0     -10.478   7.829 -15.651  0.00  0.00    +0.000 HD
ENDBRANCH  42  43
ENDBRANCH  40  42
ENDBRANCH  39  40
ENDBRANCH  36  39
ENDBRANCH  32  33
ENDBRANCH  31  32
ENDBRANCH   4  31
TORSDOF 13
