REMARK VINA RESULT:      -6.9      1.270      2.585
REMARK  Name = ADN.pdb
REMARK  6 active torsions:
REMARK  status: ('A' for Active; 'I' for Inactive)
REMARK    1  A    between atoms: O5'_1  and  C5'_2
REMARK    2  A    between atoms: C5'_2  and  C4'_3
REMARK    3  A    between atoms: C3'_5  and  O3'_6
REMARK    4  A    between atoms: C2'_7  and  O2'_8
REMARK    5  A    between atoms: C1'_9  and  N9_10
REMARK    6  A    between atoms: C6_14  and  N6_15
REMARK                            x       y       z     vdW  Elec       q    Type
REMARK                         _______ _______ _______ _____ _____    ______ ____
ROOT
ATOM      1  N9  ADN     0      -2.701   1.844  -9.532  0.00  0.00    +0.000 N 
ATOM      2  C8  ADN     0      -3.926   1.770 -10.124  0.00  0.00    +0.000 A 
ATOM      3  N7  ADN     0      -4.003   2.631 -11.097  0.00  0.00    +0.000 NA
ATOM      4  C5  ADN     0      -2.836   3.315 -11.186  0.00  0.00    +0.000 A 
ATOM      5  C6  ADN     0      -2.348   4.330 -12.027  0.00  0.00    +0.000 C 
ATOM      6  N1  ADN     0      -1.113   4.775 -11.829  0.00  0.00    +0.000 NA
ATOM      7  C2  ADN     0      -0.351   4.277 -10.873  0.00  0.00    +0.000 C 
ATOM      8  N3  ADN     0      -0.763   3.321 -10.066  0.00  0.00    +0.000 N 
ATOM      9  C4  ADN     0      -1.986   2.814 -10.188  0.00  0.00    +0.000 A 
ATOM     10  H   ADN     0      -0.160   2.979  -9.367  0.00  0.00    +0.000 HD
ENDROOT
BRANCH   1  15
ATOM     11  C4' ADN     0      -2.903  -0.415  -6.755  0.00  0.00    +0.000 C 
ATOM     12  O4' ADN     0      -3.176  -0.019  -8.117  0.00  0.00    +0.000 OA
ATOM     13  C3' ADN     0      -2.641   0.910  -6.006  0.00  0.00    +0.000 C 
ATOM     14  C2' ADN     0      -2.189   1.887  -7.116  0.00  0.00    +0.000 C 
ATOM     15  C1' ADN     0      -2.234   1.036  -8.404  0.00  0.00    +0.000 C 
BRANCH  13  16
ATOM     16  O3' ADN     0      -1.607   0.740  -5.034  0.00  0.00    +0.000 OA
ATOM     17 HO3' ADN     0      -2.039   0.716  -4.169  0.00  0.00    +0.000 HD
ENDBRANCH  13  16
BRANCH  14  18
ATOM     18  O2' ADN     0      -0.862   2.352  -6.862  0.00  0.00    +0.000 OA
ATOM     19 HO2' ADN     0      -0.576   1.946  -6.033  0.00  0.00    +0.000 HD
ENDBRANCH  14  18
BRANCH  11  20
ATOM     20  C5' ADN     0      -4.112  -1.138  -6.158  0.00  0.00    +0.000 C 
BRANCH  20  21
ATOM     21  O5' ADN     0      -3.667  -2.274  -5.414  0.00  0.00    +0.000 OA
ATOM     22 HO5' ADN     0      -4.195  -2.301  -4.604  0.00  0.00    +0.000 HD
ENDBRANCH  20  21
ENDBRANCH  11  20
ENDBRANCH   1  15
BRANCH   5  23
ATOM     23  N6  ADN     0      -3.139   4.859 -13.031  0.00  0.00    +0.000 NA
ATOM     24 HN61 ADN     0      -3.964   4.415 -13.284  0.00  0.00    +0.000 HD
ATOM     25 HN62 ADN     0      -2.871   5.676 -13.480  0.00  0.00    +0.000 HD
ENDBRANCH   5  23
TORSDOF 6
