REMARK VINA RESULT:      -9.0      3.106     12.993
REMARK  Name = NGI.pdb
REMARK  14 active torsions:
REMARK  status: ('A' for Active; 'I' for Inactive)
REMARK    1  A    between atoms: C1_1  and  C2_4
REMARK    2  A    between atoms: N1_2  and  C2_4
REMARK    3  A    between atoms: N2_5  and  C5_13
REMARK    4  A    between atoms: C3_7  and  C4_10
REMARK    5  A    between atoms: O3_9  and  C6_16
REMARK    6  A    between atoms: N4_11  and  C10_23
REMARK    7  A    between atoms: O4_12  and  C7_19
REMARK    8  A    between atoms: O5_15  and  C20_33
REMARK    9  A    between atoms: N6_17  and  C12_25
REMARK   10  A    between atoms: C12_25  and  C13_26
REMARK   11  A    between atoms: C13_26  and  C14_27
REMARK   12  A    between atoms: C17_30  and  C18_31
REMARK   13  A    between atoms: C18_31  and  C19_32
REMARK   14  A    between atoms: C19_32  and  C20_33
REMARK                            x       y       z     vdW  Elec       q    Type
REMARK                         _______ _______ _______ _____ _____    ______ ____
ROOT
ATOM      1  N2  NGI     0      -3.836   0.592  -8.896  0.00  0.00    +0.000 N 
ATOM      2  N3  NGI     0      -5.728  -0.197  -9.648  0.00  0.00    +0.000 NA
ATOM      3  N5  NGI     0      -5.328   2.430 -12.186  0.00  0.00    +0.000 NA
ATOM      4  N6  NGI     0      -3.560   3.947 -12.347  0.00  0.00    +0.000 N 
ATOM      5  N7  NGI     0      -3.599   2.358 -10.641  0.00  0.00    +0.000 N 
ATOM      6  C8  NGI     0      -4.825  -0.332  -8.721  0.00  0.00    +0.000 A 
ATOM      7  C9  NGI     0      -5.381   0.823 -10.470  0.00  0.00    +0.000 A 
ATOM      8  C10 NGI     0      -5.957   1.411 -11.611  0.00  0.00    +0.000 C 
ATOM      9  C11 NGI     0      -4.175   2.881 -11.710  0.00  0.00    +0.000 C 
ATOM     10  C23 NGI     0      -4.162   1.339  -9.999  0.00  0.00    +0.000 A 
ATOM     11  HN6 NGI     0      -2.717   4.290 -12.014  0.00  0.00    +0.000 HD
ATOM     12  H   NGI     0      -2.745   2.726 -10.318  0.00  0.00    +0.000 HD
ENDROOT
BRANCH   1  15
ATOM     13  O2  NGI     0      -2.107  -0.530  -7.687  0.00  0.00    +0.000 OA
ATOM     14  C4  NGI     0      -1.301  -0.282  -6.515  0.00  0.00    +0.000 C 
ATOM     15  C5  NGI     0      -2.648   0.759  -8.057  0.00  0.00    +0.000 C 
ATOM     16  C6  NGI     0      -3.025   1.428  -6.716  0.00  0.00    +0.000 C 
ATOM     17  C7  NGI     0      -2.119   0.727  -5.679  0.00  0.00    +0.000 C 
BRANCH  14  20
ATOM     18  N1  NGI     0      -2.088  -2.053  -4.977  0.00  0.00    +0.000 N 
ATOM     19  O1  NGI     0      -0.031  -2.140  -5.804  0.00  0.00    +0.000 OA
ATOM     20  C3  NGI     0      -1.094  -1.558  -5.741  0.00  0.00    +0.000 C 
ATOM     21  HN1 NGI     0      -2.938  -1.587  -4.927  0.00  0.00    +0.000 HD
BRANCH  18  23
ATOM     22  C1  NGI     0      -3.089  -3.537  -3.312  0.00  0.00    +0.000 C 
ATOM     23  C2  NGI     0      -1.886  -3.293  -4.225  0.00  0.00    +0.000 C 
ENDBRANCH  18  23
ENDBRANCH  14  20
BRANCH  16  24
ATOM     24  O3  NGI     0      -2.746   2.828  -6.760  0.00  0.00    +0.000 OA
ATOM     25  HO3 NGI     0      -3.163   3.289  -7.501  0.00  0.00    +0.000 HD
ENDBRANCH  16  24
BRANCH  17  26
ATOM     26  O4  NGI     0      -1.253   1.675  -5.050  0.00  0.00    +0.000 OA
ATOM     27  HO4 NGI     0      -0.594   1.277  -4.463  0.00  0.00    +0.000 HD
ENDBRANCH  17  26
ENDBRANCH   1  15
BRANCH   8  28
ATOM     28  N4  NGI     0      -7.151   0.936 -12.122  0.00  0.00    +0.000 NA
ATOM     29  HN4 NGI     0      -7.178   0.078 -12.572  0.00  0.00    +0.000 HD
ATOM     30 HN4A NGI     0      -7.961   1.461 -12.032  0.00  0.00    +0.000 HD
ENDBRANCH   8  28
BRANCH   4  31
ATOM     31  C12 NGI     0      -4.184   4.556 -13.525  0.00  0.00    +0.000 C 
BRANCH  31  32
ATOM     32  C13 NGI     0      -3.128   5.324 -14.322  0.00  0.00    +0.000 C 
BRANCH  32  33
ATOM     33  C14 NGI     0      -3.783   6.012 -15.491  0.00  0.00    +0.000 A 
ATOM     34  C15 NGI     0      -4.391   5.263 -16.482  0.00  0.00    +0.000 A 
ATOM     35  C16 NGI     0      -4.991   5.895 -17.555  0.00  0.00    +0.000 A 
ATOM     36  C17 NGI     0      -4.984   7.275 -17.638  0.00  0.00    +0.000 A 
ATOM     37  C21 NGI     0      -4.377   8.023 -16.648  0.00  0.00    +0.000 A 
ATOM     38  C22 NGI     0      -3.781   7.393 -15.571  0.00  0.00    +0.000 A 
BRANCH  36  39
ATOM     39  C18 NGI     0      -5.639   7.962 -18.808  0.00  0.00    +0.000 C 
BRANCH  39  40
ATOM     40  C19 NGI     0      -4.811   7.720 -20.071  0.00  0.00    +0.000 C 
BRANCH  40  42
ATOM     41  O6  NGI     0      -3.031   8.826 -21.149  0.00  0.00    +0.000 OA
ATOM     42  C20 NGI     0      -3.883   8.886 -20.294  0.00  0.00    +0.000 C 
BRANCH  42  43
ATOM     43  O5  NGI     0      -4.004   9.993 -19.543  0.00  0.00    +0.000 OA
ATOM     44  HO5 NGI     0      -3.997   9.874 -18.584  0.00  0.00    +0.000 HD
ENDBRANCH  42  43
ENDBRANCH  40  42
ENDBRANCH  39  40
ENDBRANCH  36  39
ENDBRANCH  32  33
ENDBRANCH  31  32
ENDBRANCH   4  31
TORSDOF 13
