REMARK VINA RESULT:      -9.6      2.704     12.087
REMARK  Name = NGI.pdb
REMARK  14 active torsions:
REMARK  status: ('A' for Active; 'I' for Inactive)
REMARK    1  A    between atoms: C1_1  and  C2_4
REMARK    2  A    between atoms: N1_2  and  C2_4
REMARK    3  A    between atoms: N2_5  and  C5_13
REMARK    4  A    between atoms: C3_7  and  C4_10
REMARK    5  A    between atoms: O3_9  and  C6_16
REMARK    6  A    between atoms: N4_11  and  C10_23
REMARK    7  A    between atoms: O4_12  and  C7_19
REMARK    8  A    between atoms: O5_15  and  C20_33
REMARK    9  A    between atoms: N6_17  and  C12_25
REMARK   10  A    between atoms: C12_25  and  C13_26
REMARK   11  A    between atoms: C13_26  and  C14_27
REMARK   12  A    between atoms: C17_30  and  C18_31
REMARK   13  A    between atoms: C18_31  and  C19_32
REMARK   14  A    between atoms: C19_32  and  C20_33
REMARK                            x       y       z     vdW  Elec       q    Type
REMARK                         _______ _______ _______ _____ _____    ______ ____
ROOT
ATOM      1  N2  NGI     0      -3.627   0.856  -9.279  0.00  0.00    +0.000 N 
ATOM      2  N3  NGI     0      -5.497   0.738 -10.400  0.00  0.00    +0.000 NA
ATOM      3  N5  NGI     0      -4.117   3.638 -12.186  0.00  0.00    +0.000 NA
ATOM      4  N6  NGI     0      -2.056   4.661 -11.787  0.00  0.00    +0.000 N 
ATOM      5  N7  NGI     0      -2.723   2.821 -10.521  0.00  0.00    +0.000 N 
ATOM      6  C8  NGI     0      -4.811   0.195  -9.437  0.00  0.00    +0.000 A 
ATOM      7  C9  NGI     0      -4.804   1.783 -10.914  0.00  0.00    +0.000 A 
ATOM      8  C10 NGI     0      -5.041   2.716 -11.940  0.00  0.00    +0.000 C 
ATOM      9  C11 NGI     0      -2.987   3.678 -11.492  0.00  0.00    +0.000 C 
ATOM     10  C23 NGI     0      -3.595   1.869 -10.203  0.00  0.00    +0.000 A 
ATOM     11  HN6 NGI     0      -1.224   4.706 -11.292  0.00  0.00    +0.000 HD
ATOM     12  H   NGI     0      -1.874   2.888 -10.027  0.00  0.00    +0.000 HD
ENDROOT
BRANCH   1  15
ATOM     13  O2  NGI     0      -2.810  -0.762  -7.723  0.00  0.00    +0.000 OA
ATOM     14  C4  NGI     0      -2.078  -0.761  -6.479  0.00  0.00    +0.000 C 
ATOM     15  C5  NGI     0      -2.585   0.544  -8.298  0.00  0.00    +0.000 C 
ATOM     16  C6  NGI     0      -2.661   1.520  -7.104  0.00  0.00    +0.000 C 
ATOM     17  C7  NGI     0      -2.319   0.642  -5.879  0.00  0.00    +0.000 C 
BRANCH  14  20
ATOM     18  N1  NGI     0      -1.766  -2.518  -4.765  0.00  0.00    +0.000 N 
ATOM     19  O1  NGI     0      -3.801  -2.059  -5.521  0.00  0.00    +0.000 OA
ATOM     20  C3  NGI     0      -2.611  -1.825  -5.554  0.00  0.00    +0.000 C 
ATOM     21  HN1 NGI     0      -0.814  -2.331  -4.791  0.00  0.00    +0.000 HD
BRANCH  18  23
ATOM     22  C1  NGI     0      -1.146  -4.096  -3.003  0.00  0.00    +0.000 C 
ATOM     23  C2  NGI     0      -2.285  -3.552  -3.867  0.00  0.00    +0.000 C 
ENDBRANCH  18  23
ENDBRANCH  14  20
BRANCH  16  24
ATOM     24  O3  NGI     0      -1.700   2.568  -7.252  0.00  0.00    +0.000 OA
ATOM     25  HO3 NGI     0      -0.857   2.278  -7.625  0.00  0.00    +0.000 HD
ENDBRANCH  16  24
BRANCH  17  26
ATOM     26  O4  NGI     0      -1.137   1.121  -5.234  0.00  0.00    +0.000 OA
ATOM     27  HO4 NGI     0      -0.450   0.449  -5.122  0.00  0.00    +0.000 HD
ENDBRANCH  17  26
ENDBRANCH   1  15
BRANCH   8  28
ATOM     28  N4  NGI     0      -6.210   2.672 -12.677  0.00  0.00    +0.000 NA
ATOM     29  HN4 NGI     0      -6.682   1.831 -12.786  0.00  0.00    +0.000 HD
ATOM     30 HN4A NGI     0      -6.558   3.479 -13.086  0.00  0.00    +0.000 HD
ENDBRANCH   8  28
BRANCH   4  31
ATOM     31  C12 NGI     0      -2.328   5.633 -12.849  0.00  0.00    +0.000 C 
BRANCH  31  32
ATOM     32  C13 NGI     0      -1.986   5.014 -14.207  0.00  0.00    +0.000 C 
BRANCH  32  33
ATOM     33  C14 NGI     0      -3.087   5.319 -15.190  0.00  0.00    +0.000 A 
ATOM     34  C15 NGI     0      -3.683   4.294 -15.899  0.00  0.00    +0.000 A 
ATOM     35  C16 NGI     0      -4.693   4.574 -16.801  0.00  0.00    +0.000 A 
ATOM     36  C17 NGI     0      -5.105   5.880 -16.994  0.00  0.00    +0.000 A 
ATOM     37  C21 NGI     0      -4.509   6.904 -16.285  0.00  0.00    +0.000 A 
ATOM     38  C22 NGI     0      -3.504   6.624 -15.378  0.00  0.00    +0.000 A 
BRANCH  36  39
ATOM     39  C18 NGI     0      -6.206   6.184 -17.978  0.00  0.00    +0.000 C 
BRANCH  39  40
ATOM     40  C19 NGI     0      -7.478   6.561 -17.218  0.00  0.00    +0.000 C 
BRANCH  40  42
ATOM     41  O6  NGI     0      -8.184   4.959 -15.640  0.00  0.00    +0.000 OA
ATOM     42  C20 NGI     0      -8.202   5.308 -16.797  0.00  0.00    +0.000 C 
BRANCH  42  43
ATOM     43  O5  NGI     0      -8.868   4.580 -17.708  0.00  0.00    +0.000 OA
ATOM     44  HO5 NGI     0      -8.977   4.970 -18.586  0.00  0.00    +0.000 HD
ENDBRANCH  42  43
ENDBRANCH  40  42
ENDBRANCH  39  40
ENDBRANCH  36  39
ENDBRANCH  32  33
ENDBRANCH  31  32
ENDBRANCH   4  31
TORSDOF 13
