REMARK VINA RESULT:      -6.2      2.599      3.653
REMARK  Name = NEC.pdb
REMARK  7 active torsions:
REMARK  status: ('A' for Active; 'I' for Inactive)
REMARK    1  A    between atoms: C5'_1  and  C4'_6
REMARK    2  A    between atoms: N5'_3  and  C51_4
REMARK    3  A    between atoms: C51_4  and  C52_5
REMARK    4  A    between atoms: C3'_8  and  O3'_9
REMARK    5  A    between atoms: C2'_10  and  O2'_11
REMARK    6  A    between atoms: C1'_12  and  N9_13
REMARK    7  A    between atoms: C6_17  and  N6_18
REMARK                            x       y       z     vdW  Elec       q    Type
REMARK                         _______ _______ _______ _____ _____    ______ ____
ROOT
ATOM      1  C4' NEC     0      -2.346   1.795  -9.446  0.00  0.00    +0.000 C 
ATOM      2  O4' NEC     0      -2.532   2.259 -10.800  0.00  0.00    +0.000 OA
ATOM      3  C3' NEC     0      -2.188   3.103  -8.630  0.00  0.00    +0.000 C 
ATOM      4  C2' NEC     0      -1.388   3.999  -9.609  0.00  0.00    +0.000 C 
ATOM      5  C1' NEC     0      -1.636   3.365 -10.991  0.00  0.00    +0.000 C 
ENDROOT
BRANCH   5   6
ATOM      6  N9  NEC     0      -2.242   4.348 -11.891  0.00  0.00    +0.000 N 
ATOM      7  C8  NEC     0      -1.709   5.550 -12.249  0.00  0.00    +0.000 A 
ATOM      8  N7  NEC     0      -2.514   6.170 -13.063  0.00  0.00    +0.000 NA
ATOM      9  C5  NEC     0      -3.612   5.406 -13.278  0.00  0.00    +0.000 A 
ATOM     10  C6  NEC     0      -4.783   5.552 -14.042  0.00  0.00    +0.000 C 
ATOM     11  N1  NEC     0      -5.679   4.572 -14.020  0.00  0.00    +0.000 NA
ATOM     12  C2  NEC     0      -5.483   3.483 -13.300  0.00  0.00    +0.000 C 
ATOM     13  N3  NEC     0      -4.403   3.303 -12.570  0.00  0.00    +0.000 N 
ATOM     14  C4  NEC     0      -3.448   4.227 -12.534  0.00  0.00    +0.000 A 
ATOM     15  H   NEC     0      -4.301   2.476 -12.045  0.00  0.00    +0.000 HD
BRANCH  10  16
ATOM     16  N6  NEC     0      -4.996   6.689 -14.800  0.00  0.00    +0.000 NA
ATOM     17 HN61 NEC     0      -5.434   6.622 -15.663  0.00  0.00    +0.000 HD
ATOM     18 HN62 NEC     0      -4.710   7.554 -14.468  0.00  0.00    +0.000 HD
ENDBRANCH  10  16
ENDBRANCH   5   6
BRANCH   1  19
ATOM     19  C5' NEC     0      -3.552   1.021  -8.979  0.00  0.00    +0.000 C 
ATOM     20  O5' NEC     0      -4.653   1.302  -9.404  0.00  0.00    +0.000 OA
ATOM     21  N5' NEC     0      -3.407   0.018  -8.092  0.00  0.00    +0.000 N 
ATOM     22  HN5 NEC     0      -2.527  -0.207  -7.753  0.00  0.00    +0.000 HD
BRANCH  21  23
ATOM     23  C51 NEC     0      -4.580  -0.735  -7.641  0.00  0.00    +0.000 C 
ATOM     24  C52 NEC     0      -4.378  -1.170  -6.188  0.00  0.00    +0.000 C 
ENDBRANCH  21  23
ENDBRANCH   1  19
BRANCH   3  25
ATOM     25  O3' NEC     0      -1.451   2.875  -7.428  0.00  0.00    +0.000 OA
ATOM     26 HO3' NEC     0      -0.528   3.092  -7.620  0.00  0.00    +0.000 HD
ENDBRANCH   3  25
BRANCH   4  27
ATOM     27  O2' NEC     0       0.005   3.971  -9.288  0.00  0.00    +0.000 OA
ATOM     28 HO2' NEC     0       0.468   4.406 -10.017  0.00  0.00    +0.000 HD
ENDBRANCH   4  27
TORSDOF 6
