REMARK VINA RESULT:      -7.7      0.000      0.000
REMARK  Name = NEC.pdb
REMARK  7 active torsions:
REMARK  status: ('A' for Active; 'I' for Inactive)
REMARK    1  A    between atoms: C5'_1  and  C4'_6
REMARK    2  A    between atoms: N5'_3  and  C51_4
REMARK    3  A    between atoms: C51_4  and  C52_5
REMARK    4  A    between atoms: C3'_8  and  O3'_9
REMARK    5  A    between atoms: C2'_10  and  O2'_11
REMARK    6  A    between atoms: C1'_12  and  N9_13
REMARK    7  A    between atoms: C6_17  and  N6_18
REMARK                            x       y       z     vdW  Elec       q    Type
REMARK                         _______ _______ _______ _____ _____    ______ ____
ROOT
ATOM      1  C4' NEC     0      -1.755   0.212  -6.752  0.00  0.00    +0.000 C 
ATOM      2  O4' NEC     0      -2.043   0.268  -8.165  0.00  0.00    +0.000 OA
ATOM      3  C3' NEC     0      -2.136   1.626  -6.246  0.00  0.00    +0.000 C 
ATOM      4  C2' NEC     0      -1.689   2.523  -7.429  0.00  0.00    +0.000 C 
ATOM      5  C1' NEC     0      -1.621   1.560  -8.629  0.00  0.00    +0.000 C 
ENDROOT
BRANCH   5   6
ATOM      6  N9  NEC     0      -2.513   2.024  -9.694  0.00  0.00    +0.000 N 
ATOM      7  C8  NEC     0      -2.266   3.042 -10.565  0.00  0.00    +0.000 A 
ATOM      8  N7  NEC     0      -3.272   3.185 -11.379  0.00  0.00    +0.000 NA
ATOM      9  C5  NEC     0      -4.225   2.268 -11.082  0.00  0.00    +0.000 A 
ATOM     10  C6  NEC     0      -5.491   1.954 -11.606  0.00  0.00    +0.000 C 
ATOM     11  N1  NEC     0      -6.175   0.960 -11.053  0.00  0.00    +0.000 NA
ATOM     12  C2  NEC     0      -5.687   0.278 -10.034  0.00  0.00    +0.000 C 
ATOM     13  N3  NEC     0      -4.507   0.537  -9.511  0.00  0.00    +0.000 N 
ATOM     14  C4  NEC     0      -3.747   1.510 -10.002  0.00  0.00    +0.000 A 
ATOM     15  H   NEC     0      -4.184   0.004  -8.748  0.00  0.00    +0.000 HD
BRANCH  10  16
ATOM     16  N6  NEC     0      -6.011   2.664 -12.674  0.00  0.00    +0.000 NA
ATOM     17 HN61 NEC     0      -6.049   2.257 -13.554  0.00  0.00    +0.000 HD
ATOM     18 HN62 NEC     0      -6.339   3.567 -12.543  0.00  0.00    +0.000 HD
ENDBRANCH  10  16
ENDBRANCH   5   6
BRANCH   1  19
ATOM     19  C5' NEC     0      -2.602  -0.837  -6.079  0.00  0.00    +0.000 C 
ATOM     20  O5' NEC     0      -3.810  -0.789  -6.168  0.00  0.00    +0.000 OA
ATOM     21  N5' NEC     0      -2.016  -1.829  -5.380  0.00  0.00    +0.000 N 
ATOM     22  HN5 NEC     0      -1.050  -1.868  -5.310  0.00  0.00    +0.000 HD
BRANCH  21  23
ATOM     23  C51 NEC     0      -2.839  -2.850  -4.727  0.00  0.00    +0.000 C 
ATOM     24  C52 NEC     0      -2.075  -3.438  -3.540  0.00  0.00    +0.000 C 
ENDBRANCH  21  23
ENDBRANCH   1  19
BRANCH   3  25
ATOM     25  O3' NEC     0      -1.419   1.957  -5.055  0.00  0.00    +0.000 OA
ATOM     26 HO3' NEC     0      -1.731   2.829  -4.774  0.00  0.00    +0.000 HD
ENDBRANCH   3  25
BRANCH   4  27
ATOM     27  O2' NEC     0      -0.403   3.090  -7.168  0.00  0.00    +0.000 OA
ATOM     28 HO2' NEC     0      -0.305   3.846  -7.764  0.00  0.00    +0.000 HD
ENDBRANCH   4  27
TORSDOF 6
