REMARK VINA RESULT:      -6.2      7.254     11.077
REMARK  Name = NEC.pdb
REMARK  7 active torsions:
REMARK  status: ('A' for Active; 'I' for Inactive)
REMARK    1  A    between atoms: C5'_1  and  C4'_6
REMARK    2  A    between atoms: N5'_3  and  C51_4
REMARK    3  A    between atoms: C51_4  and  C52_5
REMARK    4  A    between atoms: C3'_8  and  O3'_9
REMARK    5  A    between atoms: C2'_10  and  O2'_11
REMARK    6  A    between atoms: C1'_12  and  N9_13
REMARK    7  A    between atoms: C6_17  and  N6_18
REMARK                            x       y       z     vdW  Elec       q    Type
REMARK                         _______ _______ _______ _____ _____    ______ ____
ROOT
ATOM      1  C4' NEC     0      -6.156   4.654 -17.966  0.00  0.00    +0.000 C 
ATOM      2  O4' NEC     0      -5.019   4.241 -17.179  0.00  0.00    +0.000 OA
ATOM      3  C3' NEC     0      -6.712   5.876 -17.191  0.00  0.00    +0.000 C 
ATOM      4  C2' NEC     0      -6.485   5.453 -15.718  0.00  0.00    +0.000 C 
ATOM      5  C1' NEC     0      -5.396   4.366 -15.799  0.00  0.00    +0.000 C 
ENDROOT
BRANCH   5   6
ATOM      6  N9  NEC     0      -4.235   4.760 -14.998  0.00  0.00    +0.000 N 
ATOM      7  C8  NEC     0      -3.283   5.668 -15.352  0.00  0.00    +0.000 A 
ATOM      8  N7  NEC     0      -2.396   5.775 -14.405  0.00  0.00    +0.000 NA
ATOM      9  C5  NEC     0      -2.723   4.944 -13.386  0.00  0.00    +0.000 A 
ATOM     10  C6  NEC     0      -2.155   4.641 -12.137  0.00  0.00    +0.000 C 
ATOM     11  N1  NEC     0      -2.763   3.748 -11.365  0.00  0.00    +0.000 NA
ATOM     12  C2  NEC     0      -3.874   3.152 -11.754  0.00  0.00    +0.000 C 
ATOM     13  N3  NEC     0      -4.442   3.404 -12.915  0.00  0.00    +0.000 N 
ATOM     14  C4  NEC     0      -3.909   4.288 -13.752  0.00  0.00    +0.000 A 
ATOM     15  H   NEC     0      -5.269   2.933 -13.165  0.00  0.00    +0.000 HD
BRANCH  10  16
ATOM     16  N6  NEC     0      -0.990   5.261 -11.720  0.00  0.00    +0.000 NA
ATOM     17 HN61 NEC     0      -0.478   5.801 -12.342  0.00  0.00    +0.000 HD
ATOM     18 HN62 NEC     0      -0.687   5.157 -10.804  0.00  0.00    +0.000 HD
ENDBRANCH  10  16
ENDBRANCH   5   6
BRANCH   1  19
ATOM     19  C5' NEC     0      -5.724   5.057 -19.352  0.00  0.00    +0.000 C 
ATOM     20  O5' NEC     0      -5.359   4.213 -20.143  0.00  0.00    +0.000 OA
ATOM     21  N5' NEC     0      -5.745   6.355 -19.714  0.00  0.00    +0.000 N 
ATOM     22  HN5 NEC     0      -6.037   7.029 -19.082  0.00  0.00    +0.000 HD
BRANCH  21  23
ATOM     23  C51 NEC     0      -5.326   6.746 -21.062  0.00  0.00    +0.000 C 
ATOM     24  C52 NEC     0      -4.332   7.906 -20.971  0.00  0.00    +0.000 C 
ENDBRANCH  21  23
ENDBRANCH   1  19
BRANCH   3  25
ATOM     25  O3' NEC     0      -8.102   6.067 -17.459  0.00  0.00    +0.000 OA
ATOM     26 HO3' NEC     0      -8.587   5.516 -16.828  0.00  0.00    +0.000 HD
ENDBRANCH   3  25
BRANCH   4  27
ATOM     27  O2' NEC     0      -7.687   4.917 -15.161  0.00  0.00    +0.000 OA
ATOM     28 HO2' NEC     0      -7.421   4.289 -14.475  0.00  0.00    +0.000 HD
ENDBRANCH   4  27
TORSDOF 6
