REMARK VINA RESULT:      -6.4      3.152      7.150
REMARK  Name = NEC.pdb
REMARK  7 active torsions:
REMARK  status: ('A' for Active; 'I' for Inactive)
REMARK    1  A    between atoms: C5'_1  and  C4'_6
REMARK    2  A    between atoms: N5'_3  and  C51_4
REMARK    3  A    between atoms: C51_4  and  C52_5
REMARK    4  A    between atoms: C3'_8  and  O3'_9
REMARK    5  A    between atoms: C2'_10  and  O2'_11
REMARK    6  A    between atoms: C1'_12  and  N9_13
REMARK    7  A    between atoms: C6_17  and  N6_18
REMARK                            x       y       z     vdW  Elec       q    Type
REMARK                         _______ _______ _______ _____ _____    ______ ____
ROOT
ATOM      1  C4' NEC     0      -4.663   2.190 -12.018  0.00  0.00    +0.000 C 
ATOM      2  O4' NEC     0      -3.551   2.184 -11.099  0.00  0.00    +0.000 OA
ATOM      3  C3' NEC     0      -5.898   2.020 -11.098  0.00  0.00    +0.000 C 
ATOM      4  C2' NEC     0      -5.365   1.045 -10.019  0.00  0.00    +0.000 C 
ATOM      5  C1' NEC     0      -3.833   1.185 -10.106  0.00  0.00    +0.000 C 
ENDROOT
BRANCH   5   6
ATOM      6  N9  NEC     0      -3.295   1.604  -8.810  0.00  0.00    +0.000 N 
ATOM      7  C8  NEC     0      -3.174   2.886  -8.364  0.00  0.00    +0.000 A 
ATOM      8  N7  NEC     0      -2.656   2.895  -7.169  0.00  0.00    +0.000 NA
ATOM      9  C5  NEC     0      -2.413   1.621  -6.775  0.00  0.00    +0.000 A 
ATOM     10  C6  NEC     0      -1.877   1.031  -5.618  0.00  0.00    +0.000 C 
ATOM     11  N1  NEC     0      -1.783  -0.292  -5.568  0.00  0.00    +0.000 NA
ATOM     12  C2  NEC     0      -2.178  -1.044  -6.578  0.00  0.00    +0.000 C 
ATOM     13  N3  NEC     0      -2.685  -0.535  -7.682  0.00  0.00    +0.000 N 
ATOM     14  C4  NEC     0      -2.825   0.780  -7.820  0.00  0.00    +0.000 A 
ATOM     15  H   NEC     0      -2.963  -1.134  -8.412  0.00  0.00    +0.000 HD
BRANCH  10  16
ATOM     16  N6  NEC     0      -1.461   1.811  -4.553  0.00  0.00    +0.000 NA
ATOM     17 HN61 NEC     0      -0.596   2.250  -4.582  0.00  0.00    +0.000 HD
ATOM     18 HN62 NEC     0      -2.034   1.919  -3.778  0.00  0.00    +0.000 HD
ENDBRANCH  10  16
ENDBRANCH   5   6
BRANCH   1  19
ATOM     19  C5' NEC     0      -4.731   3.500 -12.760  0.00  0.00    +0.000 C 
ATOM     20  O5' NEC     0      -5.791   3.891 -13.204  0.00  0.00    +0.000 OA
ATOM     21  N5' NEC     0      -3.616   4.238 -12.929  0.00  0.00    +0.000 N 
ATOM     22  HN5 NEC     0      -2.770   3.925 -12.574  0.00  0.00    +0.000 HD
BRANCH  21  23
ATOM     23  C51 NEC     0      -3.684   5.512 -13.649  0.00  0.00    +0.000 C 
ATOM     24  C52 NEC     0      -2.993   5.367 -15.007  0.00  0.00    +0.000 C 
ENDBRANCH  21  23
ENDBRANCH   1  19
BRANCH   3  25
ATOM     25  O3' NEC     0      -6.996   1.444 -11.809  0.00  0.00    +0.000 OA
ATOM     26 HO3' NEC     0      -7.787   1.597 -11.274  0.00  0.00    +0.000 HD
ENDBRANCH   3  25
BRANCH   4  27
ATOM     27  O2' NEC     0      -5.762  -0.296 -10.317  0.00  0.00    +0.000 OA
ATOM     28 HO2' NEC     0      -6.633  -0.424  -9.916  0.00  0.00    +0.000 HD
ENDBRANCH   4  27
TORSDOF 6
