REMARK VINA RESULT:      -6.7      5.562      9.219
REMARK  Name = NEC.pdb
REMARK  7 active torsions:
REMARK  status: ('A' for Active; 'I' for Inactive)
REMARK    1  A    between atoms: C5'_1  and  C4'_6
REMARK    2  A    between atoms: N5'_3  and  C51_4
REMARK    3  A    between atoms: C51_4  and  C52_5
REMARK    4  A    between atoms: C3'_8  and  O3'_9
REMARK    5  A    between atoms: C2'_10  and  O2'_11
REMARK    6  A    between atoms: C1'_12  and  N9_13
REMARK    7  A    between atoms: C6_17  and  N6_18
REMARK                            x       y       z     vdW  Elec       q    Type
REMARK                         _______ _______ _______ _____ _____    ______ ____
ROOT
ATOM      1  C4' NEC     0      -5.031   4.818 -15.546  0.00  0.00    +0.000 C 
ATOM      2  O4' NEC     0      -4.392   4.107 -14.465  0.00  0.00    +0.000 OA
ATOM      3  C3' NEC     0      -4.358   6.214 -15.512  0.00  0.00    +0.000 C 
ATOM      4  C2' NEC     0      -4.179   6.448 -13.990  0.00  0.00    +0.000 C 
ATOM      5  C1' NEC     0      -4.246   5.036 -13.379  0.00  0.00    +0.000 C 
ENDROOT
BRANCH   5   6
ATOM      6  N9  NEC     0      -3.014   4.751 -12.641  0.00  0.00    +0.000 N 
ATOM      7  C8  NEC     0      -1.817   5.383 -12.797  0.00  0.00    +0.000 A 
ATOM      8  N7  NEC     0      -0.937   4.877 -11.980  0.00  0.00    +0.000 NA
ATOM      9  C5  NEC     0      -1.514   3.892 -11.251  0.00  0.00    +0.000 A 
ATOM     10  C6  NEC     0      -1.069   3.018 -10.244  0.00  0.00    +0.000 C 
ATOM     11  N1  NEC     0      -1.933   2.149  -9.733  0.00  0.00    +0.000 NA
ATOM     12  C2  NEC     0      -3.182   2.099 -10.156  0.00  0.00    +0.000 C 
ATOM     13  N3  NEC     0      -3.643   2.896 -11.097  0.00  0.00    +0.000 N 
ATOM     14  C4  NEC     0      -2.853   3.803 -11.662  0.00  0.00    +0.000 A 
ATOM     15  H   NEC     0      -4.582   2.821 -11.383  0.00  0.00    +0.000 HD
BRANCH  10  16
ATOM     16  N6  NEC     0       0.239   3.064  -9.794  0.00  0.00    +0.000 NA
ATOM     17 HN61 NEC     0       0.643   3.915  -9.564  0.00  0.00    +0.000 HD
ATOM     18 HN62 NEC     0       0.751   2.245  -9.707  0.00  0.00    +0.000 HD
ENDBRANCH  10  16
ENDBRANCH   5   6
BRANCH   1  19
ATOM     19  C5' NEC     0      -4.765   4.134 -16.862  0.00  0.00    +0.000 C 
ATOM     20  O5' NEC     0      -3.817   3.387 -16.976  0.00  0.00    +0.000 OA
ATOM     21  N5' NEC     0      -5.582   4.352 -17.912  0.00  0.00    +0.000 N 
ATOM     22  HN5 NEC     0      -6.340   4.949 -17.820  0.00  0.00    +0.000 HD
BRANCH  21  23
ATOM     23  C51 NEC     0      -5.324   3.685 -19.190  0.00  0.00    +0.000 C 
ATOM     24  C52 NEC     0      -6.643   3.173 -19.773  0.00  0.00    +0.000 C 
ENDBRANCH  21  23
ENDBRANCH   1  19
BRANCH   3  25
ATOM     25  O3' NEC     0      -5.208   7.210 -16.085  0.00  0.00    +0.000 OA
ATOM     26 HO3' NEC     0      -6.108   7.013 -15.791  0.00  0.00    +0.000 HD
ENDBRANCH   3  25
BRANCH   4  27
ATOM     27  O2' NEC     0      -5.237   7.264 -13.482  0.00  0.00    +0.000 OA
ATOM     28 HO2' NEC     0      -5.216   8.092 -13.983  0.00  0.00    +0.000 HD
ENDBRANCH   4  27
TORSDOF 6
