REMARK  Name = ADN.pdb
REMARK  6 active torsions:
REMARK  status: ('A' for Active; 'I' for Inactive)
REMARK    1  A    between atoms: O5'_1  and  C5'_2
REMARK    2  A    between atoms: C5'_2  and  C4'_3
REMARK    3  A    between atoms: C3'_5  and  O3'_6
REMARK    4  A    between atoms: C2'_7  and  O2'_8
REMARK    5  A    between atoms: C1'_9  and  N9_10
REMARK    6  A    between atoms: C6_14  and  N6_15
REMARK                            x       y       z     vdW  Elec       q    Type
REMARK                         _______ _______ _______ _____ _____    ______ ____
ROOT
ATOM      1  N9  ADN     0      -0.372   0.009   0.440  0.00  0.00    +0.000 N 
ATOM      2  C8  ADN     0      -1.525  -0.685   0.657  0.00  0.00    +0.000 A 
ATOM      3  N7  ADN     0      -1.717  -0.841   1.935  0.00  0.00    +0.000 NA
ATOM      4  C5  ADN     0      -0.699  -0.262   2.617  0.00  0.00    +0.000 A 
ATOM      5  C6  ADN     0      -0.383  -0.109   3.978  0.00  0.00    +0.000 C 
ATOM      6  N1  ADN     0       0.728   0.543   4.300  0.00  0.00    +0.000 NA
ATOM      7  C2  ADN     0       1.520   1.045   3.370  0.00  0.00    +0.000 C 
ATOM      8  N3  ADN     0       1.261   0.932   2.084  0.00  0.00    +0.000 N 
ATOM      9  C4  ADN     0       0.172   0.295   1.667  0.00  0.00    +0.000 A 
ATOM     10  H   ADN     0       1.880   1.323   1.426  0.00  0.00    +0.000 HD
ENDROOT
BRANCH   1  15
ATOM     11  C4' ADN     0      -0.217   0.372  -3.123  0.00  0.00    +0.000 C 
ATOM     12  O4' ADN     0      -0.871   0.501  -1.842  0.00  0.00    +0.000 OA
ATOM     13  C3' ADN     0       0.826  -0.748  -2.921  0.00  0.00    +0.000 C 
ATOM     14  C2' ADN     0       1.097  -0.740  -1.398  0.00  0.00    +0.000 C 
ATOM     15  C1' ADN     0       0.182   0.382  -0.862  0.00  0.00    +0.000 C 
BRANCH  13  16
ATOM     16  O3' ADN     0       2.023  -0.455  -3.645  0.00  0.00    +0.000 OA
ATOM     17 HO3' ADN     0       1.780  -0.413  -4.580  0.00  0.00    +0.000 HD
ENDBRANCH  13  16
BRANCH  14  18
ATOM     18  O2' ADN     0       2.470  -0.444  -1.136  0.00  0.00    +0.000 OA
ATOM     19 HO2' ADN     0       2.992  -1.147  -1.546  0.00  0.00    +0.000 HD
ENDBRANCH  14  18
BRANCH  11  20
ATOM     20  C5' ADN     0      -1.228  -0.026  -4.200  0.00  0.00    +0.000 C 
BRANCH  20  21
ATOM     21  O5' ADN     0      -2.224   0.992  -4.318  0.00  0.00    +0.000 OA
ATOM     22 HO5' ADN     0      -2.839   0.702  -5.006  0.00  0.00    +0.000 HD
ENDBRANCH  20  21
ENDBRANCH  11  20
ENDBRANCH   1  15
BRANCH   5  23
ATOM     23  N6  ADN     0      -1.206  -0.632   4.959  0.00  0.00    +0.000 NA
ATOM     24 HN61 ADN     0      -0.975  -0.523   5.895  0.00  0.00    +0.000 HD
ATOM     25 HN62 ADN     0      -2.017  -1.104   4.712  0.00  0.00    +0.000 HD
ENDBRANCH   5  23
TORSDOF 6
