REMARK  Name = NEC.pdb
REMARK  7 active torsions:
REMARK  status: ('A' for Active; 'I' for Inactive)
REMARK    1  A    between atoms: C5'_1  and  C4'_6
REMARK    2  A    between atoms: N5'_3  and  C51_4
REMARK    3  A    between atoms: C51_4  and  C52_5
REMARK    4  A    between atoms: C3'_8  and  O3'_9
REMARK    5  A    between atoms: C2'_10  and  O2'_11
REMARK    6  A    between atoms: C1'_12  and  N9_13
REMARK    7  A    between atoms: C6_17  and  N6_18
REMARK                            x       y       z     vdW  Elec       q    Type
REMARK                         _______ _______ _______ _____ _____    ______ ____
ROOT
ATOM      1  C4' NEC     0      -0.316   0.641   2.188  0.00  0.00    +0.000 C 
ATOM      2  O4' NEC     0       0.333   0.997   0.949  0.00  0.00    +0.000 OA
ATOM      3  C3' NEC     0      -0.979  -0.724   1.873  0.00  0.00    +0.000 C 
ATOM      4  C2' NEC     0      -1.435  -0.530   0.405  0.00  0.00    +0.000 C 
ATOM      5  C1' NEC     0      -0.559   0.626  -0.114  0.00  0.00    +0.000 C 
ENDROOT
BRANCH   5   6
ATOM      6  N9  NEC     0       0.210   0.187  -1.280  0.00  0.00    +0.000 N 
ATOM      7  C8  NEC     0       1.445  -0.388  -1.261  0.00  0.00    +0.000 A 
ATOM      8  N7  NEC     0       1.832  -0.652  -2.476  0.00  0.00    +0.000 NA
ATOM      9  C5  NEC     0       0.871  -0.264  -3.349  0.00  0.00    +0.000 A 
ATOM     10  C6  NEC     0       0.735  -0.297  -4.747  0.00  0.00    +0.000 C 
ATOM     11  N1  NEC     0      -0.379   0.184  -5.286  0.00  0.00    +0.000 NA
ATOM     12  C2  NEC     0      -1.341   0.685  -4.534  0.00  0.00    +0.000 C 
ATOM     13  N3  NEC     0      -1.257   0.737  -3.221  0.00  0.00    +0.000 N 
ATOM     14  C4  NEC     0      -0.182   0.273  -2.592  0.00  0.00    +0.000 A 
ATOM     15  H   NEC     0      -1.998   1.123  -2.700  0.00  0.00    +0.000 HD
BRANCH  10  16
ATOM     16  N6  NEC     0       1.738  -0.821  -5.544  0.00  0.00    +0.000 NA
ATOM     17 HN61 NEC     0       1.633  -0.838  -6.508  0.00  0.00    +0.000 HD
ATOM     18 HN62 NEC     0       2.547  -1.170  -5.138  0.00  0.00    +0.000 HD
ENDBRANCH  10  16
ENDBRANCH   5   6
BRANCH   1  19
ATOM     19  C5' NEC     0       0.696   0.496   3.295  0.00  0.00    +0.000 C 
ATOM     20  O5' NEC     0       1.865   0.741   3.083  0.00  0.00    +0.000 OA
ATOM     21  N5' NEC     0       0.302   0.096   4.520  0.00  0.00    +0.000 N 
ATOM     22  HN5 NEC     0      -0.632  -0.099   4.689  0.00  0.00    +0.000 HD
BRANCH  21  23
ATOM     23  C51 NEC     0       1.286  -0.043   5.596  0.00  0.00    +0.000 C 
ATOM     24  C52 NEC     0       0.583  -0.507   6.873  0.00  0.00    +0.000 C 
ENDBRANCH  21  23
ENDBRANCH   1  19
BRANCH   3  25
ATOM     25  O3' NEC     0      -2.099  -0.962   2.728  0.00  0.00    +0.000 OA
ATOM     26 HO3' NEC     0      -1.749  -1.074   3.623  0.00  0.00    +0.000 HD
ENDBRANCH   3  25
BRANCH   4  27
ATOM     27  O2' NEC     0      -2.818  -0.172   0.354  0.00  0.00    +0.000 OA
ATOM     28 HO2' NEC     0      -3.315  -0.931   0.690  0.00  0.00    +0.000 HD
ENDBRANCH   4  27
TORSDOF 6
