REMARK  Name = NGI.pdb
REMARK  14 active torsions:
REMARK  status: ('A' for Active; 'I' for Inactive)
REMARK    1  A    between atoms: C1_1  and  C2_4
REMARK    2  A    between atoms: N1_2  and  C2_4
REMARK    3  A    between atoms: N2_5  and  C5_13
REMARK    4  A    between atoms: C3_7  and  C4_10
REMARK    5  A    between atoms: O3_9  and  C6_16
REMARK    6  A    between atoms: N4_11  and  C10_23
REMARK    7  A    between atoms: O4_12  and  C7_19
REMARK    8  A    between atoms: O5_15  and  C20_33
REMARK    9  A    between atoms: N6_17  and  C12_25
REMARK   10  A    between atoms: C12_25  and  C13_26
REMARK   11  A    between atoms: C13_26  and  C14_27
REMARK   12  A    between atoms: C17_30  and  C18_31
REMARK   13  A    between atoms: C18_31  and  C19_32
REMARK   14  A    between atoms: C19_32  and  C20_33
REMARK                            x       y       z     vdW  Elec       q    Type
REMARK                         _______ _______ _______ _____ _____    ______ ____
ROOT
ATOM      1  N2  NGI     0      -3.383  -1.122   0.074  0.00  0.00    +0.000 N 
ATOM      2  N3  NGI     0      -2.822  -3.189  -0.348  0.00  0.00    +0.000 NA
ATOM      3  N5  NGI     0       0.597  -1.854  -0.161  0.00  0.00    +0.000 NA
ATOM      4  N6  NGI     0       1.200   0.361   0.269  0.00  0.00    +0.000 N 
ATOM      5  N7  NGI     0      -1.047  -0.257   0.200  0.00  0.00    +0.000 N 
ATOM      6  C8  NGI     0      -3.831  -2.387  -0.171  0.00  0.00    +0.000 A 
ATOM      7  C9  NGI     0      -1.666  -2.490  -0.236  0.00  0.00    +0.000 A 
ATOM      8  C10 NGI     0      -0.301  -2.818  -0.329  0.00  0.00    +0.000 C 
ATOM      9  C11 NGI     0       0.224  -0.608   0.103  0.00  0.00    +0.000 C 
ATOM     10  C23 NGI     0      -2.012  -1.157   0.039  0.00  0.00    +0.000 A 
ATOM     11  HN6 NGI     0       0.947   1.276   0.463  0.00  0.00    +0.000 HD
ATOM     12  H   NGI     0      -1.281   0.680   0.393  0.00  0.00    +0.000 HD
ENDROOT
BRANCH   1  15
ATOM     13  O2  NGI     0      -5.513  -0.336   0.818  0.00  0.00    +0.000 OA
ATOM     14  C4  NGI     0      -6.377   0.791   0.558  0.00  0.00    +0.000 C 
ATOM     15  C5  NGI     0      -4.214   0.058   0.323  0.00  0.00    +0.000 C 
ATOM     16  C6  NGI     0      -4.504   0.801  -1.000  0.00  0.00    +0.000 C 
ATOM     17  C7  NGI     0      -5.960   1.294  -0.842  0.00  0.00    +0.000 C 
BRANCH  14  20
ATOM     18  N1  NGI     0      -8.799   1.269   0.396  0.00  0.00    +0.000 N 
ATOM     19  O1  NGI     0      -8.100  -0.817   0.683  0.00  0.00    +0.000 OA
ATOM     20  C3  NGI     0      -7.820   0.356   0.550  0.00  0.00    +0.000 C 
ATOM     21  HN1 NGI     0      -8.575   2.207   0.290  0.00  0.00    +0.000 HD
BRANCH  18  23
ATOM     22  C1  NGI     0     -11.102   2.067   0.201  0.00  0.00    +0.000 C 
ATOM     23  C2  NGI     0     -10.201   0.845   0.389  0.00  0.00    +0.000 C 
ENDBRANCH  18  23
ENDBRANCH  14  20
BRANCH  16  24
ATOM     24  O3  NGI     0      -3.615   1.908  -1.158  0.00  0.00    +0.000 OA
ATOM     25  HO3 NGI     0      -3.753   2.410  -1.973  0.00  0.00    +0.000 HD
ENDBRANCH  16  24
BRANCH  17  26
ATOM     26  O4  NGI     0      -6.014   2.721  -0.898  0.00  0.00    +0.000 OA
ATOM     27  HO4 NGI     0      -6.896   3.088  -0.745  0.00  0.00    +0.000 HD
ENDBRANCH  17  26
ENDBRANCH   1  15
BRANCH   8  28
ATOM     28  N4  NGI     0       0.096  -4.117  -0.589  0.00  0.00    +0.000 NA
ATOM     29  HN4 NGI     0       1.040  -4.332  -0.651  0.00  0.00    +0.000 HD
ATOM     30 HN4A NGI     0      -0.568  -4.813  -0.710  0.00  0.00    +0.000 HD
ENDBRANCH   8  28
BRANCH   4  31
ATOM     31  C12 NGI     0       2.616   0.002   0.153  0.00  0.00    +0.000 C 
BRANCH  31  32
ATOM     32  C13 NGI     0       3.478   1.246   0.378  0.00  0.00    +0.000 C 
BRANCH  32  33
ATOM     33  C14 NGI     0       4.934   0.877   0.258  0.00  0.00    +0.000 A 
ATOM     34  C15 NGI     0       5.565   0.945  -0.970  0.00  0.00    +0.000 A 
ATOM     35  C16 NGI     0       6.901   0.606  -1.080  0.00  0.00    +0.000 A 
ATOM     36  C17 NGI     0       7.605   0.198   0.038  0.00  0.00    +0.000 A 
ATOM     37  C21 NGI     0       6.974   0.130   1.265  0.00  0.00    +0.000 A 
ATOM     38  C22 NGI     0       5.640   0.475   1.377  0.00  0.00    +0.000 A 
BRANCH  36  39
ATOM     39  C18 NGI     0       9.061  -0.171  -0.083  0.00  0.00    +0.000 C 
BRANCH  39  40
ATOM     40  C19 NGI     0       9.923   1.072   0.143  0.00  0.00    +0.000 C 
BRANCH  40  42
ATOM     41  O6  NGI     0      11.695  -0.439  -0.219  0.00  0.00    +0.000 OA
ATOM     42  C20 NGI     0      11.379   0.702   0.023  0.00  0.00    +0.000 C 
BRANCH  42  43
ATOM     43  O5  NGI     0      12.325   1.641   0.184  0.00  0.00    +0.000 OA
ATOM     44  HO5 NGI     0      13.245   1.356   0.098  0.00  0.00    +0.000 HD
ENDBRANCH  42  43
ENDBRANCH  40  42
ENDBRANCH  39  40
ENDBRANCH  36  39
ENDBRANCH  32  33
ENDBRANCH  31  32
ENDBRANCH   4  31
TORSDOF 13
